%nproc=8
%mem=1000MB
# rb3lyp/6-311+g** NMR geom=connectivity

Title

0 1
C    -4.0500558   -0.5771862    0.8136712
H    -5.0263804   -1.0082727    1.0024760
C    -3.9381552    0.6617804    0.2400876
H    -4.8252424    1.2338890   -0.0111295
C    -2.6768410    1.2433246    0.0057578
C    -1.4974121    0.5051527    0.2848253
C    -1.6508332   -0.7338728    0.9404026
H    -0.7713646   -1.2730967    1.2633753
C    -2.8898548   -1.2624035    1.1994307
H    -2.9683706   -2.2124563    1.7152676
C    -2.5773185    2.5963696   -0.4192930
H    -3.4870728    3.1412239   -0.6474055
C    -1.3741895    3.2147896   -0.4364030
H    -1.2997315    4.2742019   -0.6578144
C    -0.1719488    2.4994090   -0.1734588
C    -0.2043917    1.1018437    0.0192689
C     1.0513491    3.2042560   -0.0676222
H     1.0427344    4.2819499   -0.1896997
C     2.1942091    2.5487446    0.2579577
H     3.1168527    3.0912848    0.4334727
C     2.2216473    1.1336562    0.2934990
C     1.0486931    0.3945528    0.0302412
C     3.4483363    0.4614633    0.5573939
H     4.3095794    1.0606054    0.8334846
C     3.5427346   -0.8855926    0.4749463
H     4.4731467   -1.3939704    0.7038822
C     2.4490052   -1.6474447   -0.0196319
C     1.2150704   -1.0057258   -0.3013573
C     0.2531113   -1.7434440   -1.0216591
H    -0.6541356   -1.2535051   -1.3462847
C     0.4494193   -3.0628597   -1.3413779
H    -0.3083162   -3.5944309   -1.9054060
C     1.6251726   -3.7207967   -0.9552541
H     1.7670048   -4.7687404   -1.1927019
C     2.6109872   -3.0144177   -0.3183050
H     3.5525612   -3.4902813   -0.0646367
Bq        -1.9354036414    -0.8376633340     0.9753786795
Bq        -1.9353181752    -0.7926376377     0.9536374890
Bq        -1.9352327091    -0.7476119414     0.9318962984
Bq        -1.9351472430    -0.7025862450     0.9101551079
Bq        -1.9350617768    -0.6575605487     0.8884139174
Bq        -1.9349763107    -0.6125348524     0.8666727269
Bq        -1.9348908446    -0.5675091560     0.8449315364
Bq        -1.9348053784    -0.5224834597     0.8231903459
Bq        -1.9347199123    -0.4774577634     0.8014491553
Bq        -1.9346344462    -0.4324320670     0.7797079648
Bq        -1.9345489800    -0.3874063707     0.7579667743
Bq        -1.9344635139    -0.3423806743     0.7362255838
Bq        -1.9343780477    -0.2973549780     0.7144843933
Bq        -1.9342925816    -0.2523292817     0.6927432028
Bq        -1.9342071155    -0.2073035853     0.6710020122
Bq        -1.9341216493    -0.1622778890     0.6492608217
Bq        -1.9340361832    -0.1172521927     0.6275196312
Bq        -1.9339507171    -0.0722264963     0.6057784407
Bq        -1.9338652509    -0.0272008000     0.5840372502
Bq        -1.9337797848     0.0178248963     0.5622960597
Bq        -1.9336943186     0.0628505927     0.5405548691
Bq        -1.9336088525     0.1078762890     0.5188136786
Bq        -1.9335233864     0.1529019853     0.4970724881
Bq        -1.9334379202     0.1979276817     0.4753312976
Bq        -1.9333524541     0.2429533780     0.4535901071
Bq        -1.9332669880     0.2879790743     0.4318489166
Bq        -1.9331815218     0.3330047707     0.4101077260
Bq        -1.9330960557     0.3780304670     0.3883665355
Bq        -1.9330105895     0.4230561634     0.3666253450
Bq        -1.9329251234     0.4680818597     0.3448841545
Bq        -1.9328396573     0.5131075560     0.3231429640
Bq        -1.9327541911     0.5581332524     0.3014017735
Bq        -1.9326687250     0.6031589487     0.2796605829
Bq        -1.9325832589     0.6481846450     0.2579193924
Bq        -1.9324977927     0.6932103414     0.2361782019
Bq        -1.9324123266     0.7382360377     0.2144370114
Bq        -1.9323268604     0.7832617340     0.1926958209
Bq        -1.9322413943     0.8282874304     0.1709546304
Bq        -1.9321559282     0.8733131267     0.1492134399
Bq        -1.9320704620     0.9183388230     0.1274722493
Bq        -1.9319849959     0.9633645194     0.1057310588
Bq        -1.9318995298     1.0083902157     0.0839898683
Bq        -1.9318140636     1.0534159120     0.0622486778
Bq        -1.9317285975     1.0984416084     0.0405074873
Bq        -1.9316431313     1.1434673047     0.0187662968
Bq        -1.9315576652     1.1884930011    -0.0029748938
Bq        -1.9314721991     1.2335186974    -0.0247160843
Bq        -1.9313867329     1.2785443937    -0.0464572748
Bq        -1.9313012668     1.3235700901    -0.0681984653
Bq        -1.9312158007     1.3685957864    -0.0899396558
Bq        -1.9311303345     1.4136214827    -0.1116808463
Bq        -1.9310448684     1.4586471791    -0.1334220369
Bq        -1.9309594022     1.5036728754    -0.1551632274
Bq        -1.9308739361     1.5486985717    -0.1769044179
Bq        -1.9307884700     1.5937242681    -0.1986456084
Bq        -1.9307030038     1.6387499644    -0.2203867989
Bq        -1.9306175377     1.6837756607    -0.2421279894
Bq        -1.9305320716     1.7288013571    -0.2638691800
Bq        -1.9304466054     1.7738270534    -0.2856103705
Bq        -1.9303611393     1.8188527497    -0.3073515610
Bq        -1.9302756731     1.8638784461    -0.3290927515
Bq        -1.9301902070     1.9089041424    -0.3508339420
Bq        -1.9301047409     1.9539298388    -0.3725751325
Bq        -1.9300192747     1.9989555351    -0.3943163231
Bq        -1.9299338086     2.0439812314    -0.4160575136
Bq        -1.9298483425     2.0890069278    -0.4377987041
Bq        -1.9297628763     2.1340326241    -0.4595398946
Bq        -1.9296774102     2.1790583204    -0.4812810851
Bq        -1.9295919440     2.2240840168    -0.5030222756
Bq        -1.8881389441    -2.2784856168     1.6712933280
Bq        -1.8880534780    -2.2334599204     1.6495521374
Bq        -1.8879680118    -2.1884342241     1.6278109469
Bq        -1.8878825457    -2.1434085278     1.6060697564
Bq        -1.8877970796    -2.0983828314     1.5843285659
Bq        -1.8877116134    -2.0533571351     1.5625873754
Bq        -1.8876261473    -2.0083314388     1.5408461849
Bq        -1.8875406811    -1.9633057424     1.5191049943
Bq        -1.8874552150    -1.9182800461     1.4973638038
Bq        -1.8873697489    -1.8732543497     1.4756226133
Bq        -1.8872842827    -1.8282286534     1.4538814228
Bq        -1.8871988166    -1.7832029571     1.4321402323
Bq        -1.8871133505    -1.7381772607     1.4103990418
Bq        -1.8870278843    -1.6931515644     1.3886578512
Bq        -1.8869424182    -1.6481258681     1.3669166607
Bq        -1.8868569520    -1.6031001717     1.3451754702
Bq        -1.8867714859    -1.5580744754     1.3234342797
Bq        -1.8866860198    -1.5130487791     1.3016930892
Bq        -1.8866005536    -1.4680230827     1.2799518987
Bq        -1.8865150875    -1.4229973864     1.2582107081
Bq        -1.8864296214    -1.3779716901     1.2364695176
Bq        -1.8863441552    -1.3329459937     1.2147283271
Bq        -1.8862586891    -1.2879202974     1.1929871366
Bq        -1.8861732230    -1.2428946011     1.1712459461
Bq        -1.8860877568    -1.1978689047     1.1495047556
Bq        -1.8860022907    -1.1528432084     1.1277635651
Bq        -1.8859168245    -1.1078175120     1.1060223745
Bq        -1.8858313584    -1.0627918157     1.0842811840
Bq        -1.8857458923    -1.0177661194     1.0625399935
Bq        -1.8856604261    -0.9727404230     1.0407988030
Bq        -1.8855749600    -0.9277147267     1.0190576125
Bq        -1.8854894939    -0.8826890304     0.9973164220
Bq        -1.8854040277    -0.8376633340     0.9755752314
Bq        -1.8853185616    -0.7926376377     0.9538340409
Bq        -1.8852330954    -0.7476119414     0.9320928504
Bq        -1.8851476293    -0.7025862450     0.9103516599
Bq        -1.8850621632    -0.6575605487     0.8886104694
Bq        -1.8849766970    -0.6125348524     0.8668692789
Bq        -1.8848912309    -0.5675091560     0.8451280883
Bq        -1.8848057648    -0.5224834597     0.8233868978
Bq        -1.8847202986    -0.4774577634     0.8016457073
Bq        -1.8846348325    -0.4324320670     0.7799045168
Bq        -1.8845493663    -0.3874063707     0.7581633263
Bq        -1.8844639002    -0.3423806743     0.7364221358
Bq        -1.8843784341    -0.2973549780     0.7146809452
Bq        -1.8842929679    -0.2523292817     0.6929397547
Bq        -1.8842075018    -0.2073035853     0.6711985642
Bq        -1.8841220357    -0.1622778890     0.6494573737
Bq        -1.8840365695    -0.1172521927     0.6277161832
Bq        -1.8839511034    -0.0722264963     0.6059749927
Bq        -1.8838656372    -0.0272008000     0.5842338021
Bq        -1.8837801711     0.0178248963     0.5624926116
Bq        -1.8836947050     0.0628505927     0.5407514211
Bq        -1.8836092388     0.1078762890     0.5190102306
Bq        -1.8835237727     0.1529019853     0.4972690401
Bq        -1.8834383066     0.1979276817     0.4755278496
Bq        -1.8833528404     0.2429533780     0.4537866590
Bq        -1.8832673743     0.2879790743     0.4320454685
Bq        -1.8831819081     0.3330047707     0.4103042780
Bq        -1.8830964420     0.3780304670     0.3885630875
Bq        -1.8830109759     0.4230561634     0.3668218970
Bq        -1.8829255097     0.4680818597     0.3450807065
Bq        -1.8828400436     0.5131075560     0.3233395160
Bq        -1.8827545775     0.5581332524     0.3015983254
Bq        -1.8826691113     0.6031589487     0.2798571349
Bq        -1.8825836452     0.6481846450     0.2581159444
Bq        -1.8824981790     0.6932103414     0.2363747539
Bq        -1.8824127129     0.7382360377     0.2146335634
Bq        -1.8823272468     0.7832617340     0.1928923729
Bq        -1.8822417806     0.8282874304     0.1711511823
Bq        -1.8821563145     0.8733131267     0.1494099918
Bq        -1.8820708484     0.9183388230     0.1276688013
Bq        -1.8819853822     0.9633645194     0.1059276108
Bq        -1.8818999161     1.0083902157     0.0841864203
Bq        -1.8818144499     1.0534159120     0.0624452298
Bq        -1.8817289838     1.0984416084     0.0407040392
Bq        -1.8816435177     1.1434673047     0.0189628487
Bq        -1.8815580515     1.1884930011    -0.0027783418
Bq        -1.8814725854     1.2335186974    -0.0245195323
Bq        -1.8813871193     1.2785443937    -0.0462607228
Bq        -1.8813016531     1.3235700901    -0.0680019133
Bq        -1.8812161870     1.3685957864    -0.0897431039
Bq        -1.8811307208     1.4136214827    -0.1114842944
Bq        -1.8810452547     1.4586471791    -0.1332254849
Bq        -1.8809597886     1.5036728754    -0.1549666754
Bq        -1.8808743224     1.5486985717    -0.1767078659
Bq        -1.8807888563     1.5937242681    -0.1984490564
Bq        -1.8807033902     1.6387499644    -0.2201902470
Bq        -1.8806179240     1.6837756607    -0.2419314375
Bq        -1.8805324579     1.7288013571    -0.2636726280
Bq        -1.8804469917     1.7738270534    -0.2854138185
Bq        -1.8803615256     1.8188527497    -0.3071550090
Bq        -1.8802760595     1.8638784461    -0.3288961995
Bq        -1.8801905933     1.9089041424    -0.3506373901
Bq        -1.8801051272     1.9539298388    -0.3723785806
Bq        -1.8800196611     1.9989555351    -0.3941197711
Bq        -1.8799341949     2.0439812314    -0.4158609616
Bq        -1.8798487288     2.0890069278    -0.4376021521
Bq        -1.8797632626     2.1340326241    -0.4593433426
Bq        -1.8796777965     2.1790583204    -0.4810845331
Bq        -1.8795923304     2.2240840168    -0.5028257237
Bq        -1.8381393304    -2.2784856168     1.6714898799
Bq        -1.8380538643    -2.2334599204     1.6497486894
Bq        -1.8379683982    -2.1884342241     1.6280074989
Bq        -1.8378829320    -2.1434085278     1.6062663084
Bq        -1.8377974659    -2.0983828314     1.5845251179
Bq        -1.8377119998    -2.0533571351     1.5627839273
Bq        -1.8376265336    -2.0083314388     1.5410427368
Bq        -1.8375410675    -1.9633057424     1.5193015463
Bq        -1.8374556013    -1.9182800461     1.4975603558
Bq        -1.8373701352    -1.8732543497     1.4758191653
Bq        -1.8372846691    -1.8282286534     1.4540779748
Bq        -1.8371992029    -1.7832029571     1.4323367843
Bq        -1.8371137368    -1.7381772607     1.4105955937
Bq        -1.8370282707    -1.6931515644     1.3888544032
Bq        -1.8369428045    -1.6481258681     1.3671132127
Bq        -1.8368573384    -1.6031001717     1.3453720222
Bq        -1.8367718722    -1.5580744754     1.3236308317
Bq        -1.8366864061    -1.5130487791     1.3018896412
Bq        -1.8366009400    -1.4680230827     1.2801484506
Bq        -1.8365154738    -1.4229973864     1.2584072601
Bq        -1.8364300077    -1.3779716901     1.2366660696
Bq        -1.8363445416    -1.3329459937     1.2149248791
Bq        -1.8362590754    -1.2879202974     1.1931836886
Bq        -1.8361736093    -1.2428946011     1.1714424981
Bq        -1.8360881431    -1.1978689047     1.1497013075
Bq        -1.8360026770    -1.1528432084     1.1279601170
Bq        -1.8359172109    -1.1078175120     1.1062189265
Bq        -1.8358317447    -1.0627918157     1.0844777360
Bq        -1.8357462786    -1.0177661194     1.0627365455
Bq        -1.8356608125    -0.9727404230     1.0409953550

1
2
3
4
5
6
7
8
9
10
11
12
13
14
15
16
17
18
19
20
21
22
23
24
25
26
27
28
29
30
31
32
33
34
35
36
37
38
39
40
41
42
43
44
45
46
47
48
49
50
51
52
53
54
55
56
57
58
59
60
61
62
63
64
65
66
67
68
69
70
71
72
73
74
75
76
77
78
79
80
81
82
83
84
85
86
87
88
89
90
91
92
93
94
95
96
97
98
99
100
101
102
103
104
105
106
107
108
109
110
111
112
113
114
115
116
117
118
119
120
121
122
123
124
125
126
127
128
129
130
131
132
133
134
135
136
137
138
139
140
141
142
143
144
145
146
147
148
149
150
151
152
153
154
155
156
157
158
159
160
161
162
163
164
165
166
167
168
169
170
171
172
173
174
175
176
177
178
179
180
181
182
183
184
185
186
187
188
189
190
191
192
193
194
195
196
197
198
199
200
201
202
203
204
205
206
207
208
209
210
211
212
213
214
215
216
217
218
219
220
221
222
223
224
225
226
227
228
229
230
231
232
233
234
235
236

