%nproc=8
%mem=1000MB
# rb3lyp/6-311+g** NMR geom=connectivity

Title

0 1
C    -4.0500558   -0.5771862    0.8136712
H    -5.0263804   -1.0082727    1.0024760
C    -3.9381552    0.6617804    0.2400876
H    -4.8252424    1.2338890   -0.0111295
C    -2.6768410    1.2433246    0.0057578
C    -1.4974121    0.5051527    0.2848253
C    -1.6508332   -0.7338728    0.9404026
H    -0.7713646   -1.2730967    1.2633753
C    -2.8898548   -1.2624035    1.1994307
H    -2.9683706   -2.2124563    1.7152676
C    -2.5773185    2.5963696   -0.4192930
H    -3.4870728    3.1412239   -0.6474055
C    -1.3741895    3.2147896   -0.4364030
H    -1.2997315    4.2742019   -0.6578144
C    -0.1719488    2.4994090   -0.1734588
C    -0.2043917    1.1018437    0.0192689
C     1.0513491    3.2042560   -0.0676222
H     1.0427344    4.2819499   -0.1896997
C     2.1942091    2.5487446    0.2579577
H     3.1168527    3.0912848    0.4334727
C     2.2216473    1.1336562    0.2934990
C     1.0486931    0.3945528    0.0302412
C     3.4483363    0.4614633    0.5573939
H     4.3095794    1.0606054    0.8334846
C     3.5427346   -0.8855926    0.4749463
H     4.4731467   -1.3939704    0.7038822
C     2.4490052   -1.6474447   -0.0196319
C     1.2150704   -1.0057258   -0.3013573
C     0.2531113   -1.7434440   -1.0216591
H    -0.6541356   -1.2535051   -1.3462847
C     0.4494193   -3.0628597   -1.3413779
H    -0.3083162   -3.5944309   -1.9054060
C     1.6251726   -3.7207967   -0.9552541
H     1.7670048   -4.7687404   -1.1927019
C     2.6109872   -3.0144177   -0.3183050
H     3.5525612   -3.4902813   -0.0646367
Bq         1.4704879537     0.5336797523     0.0619258713
Bq         1.4686424284     0.5831710993     0.0687961410
Bq         1.4667969031     0.6326624463     0.0756664108
Bq         1.4649513779     0.6821537933     0.0825366806
Bq         1.4631058526     0.7316451404     0.0894069504
Bq         1.4612603273     0.7811364874     0.0962772202
Bq         1.4594148020     0.8306278344     0.1031474899
Bq         1.4575692768     0.8801191814     0.1100177597
Bq         1.4557237515     0.9296105284     0.1168880295
Bq         1.4538782262     0.9791018754     0.1237582993
Bq         1.4520327010     1.0285932225     0.1306285691
Bq         1.4501871757     1.0780845695     0.1374988388
Bq         1.4483416504     1.1275759165     0.1443691086
Bq         1.4464961252     1.1770672635     0.1512393784
Bq         1.4446505999     1.2265586105     0.1581096482
Bq         1.4428050746     1.2760499576     0.1649799180
Bq         1.4409595494     1.3255413046     0.1718501877
Bq         1.4391140241     1.3750326516     0.1787204575
Bq         1.4372684988     1.4245239986     0.1855907273
Bq         1.4354229736     1.4740153456     0.1924609971
Bq         1.4335774483     1.5235066926     0.1993312669
Bq         1.4317319230     1.5729980397     0.2062015366
Bq         1.4298863978     1.6224893867     0.2130718064
Bq         1.4280408725     1.6719807337     0.2199420762
Bq         1.4261953472     1.7214720807     0.2268123460
Bq         1.4243498220     1.7709634277     0.2336826158
Bq         1.4225042967     1.8204547748     0.2405528855
Bq         1.4206587714     1.8699461218     0.2474231553
Bq         1.4188132462     1.9194374688     0.2542934251
Bq         1.4169677209     1.9689288158     0.2611636949
Bq         1.4151221956     2.0184201628     0.2680339646
Bq         1.4132766704     2.0679115098     0.2749042344
Bq         1.4114311451     2.1174028569     0.2817745042
Bq         1.4095856198     2.1668942039     0.2886447740
Bq         1.4077400946     2.2163855509     0.2955150438
Bq         1.6405807463    -2.7327491509    -0.3785405433
Bq         1.6387352211    -2.6832578039    -0.3716702735
Bq         1.6368896958    -2.6337664569    -0.3648000037
Bq         1.6350441705    -2.5842751098    -0.3579297339
Bq         1.6331986453    -2.5347837628    -0.3510594642
Bq         1.6313531200    -2.4852924158    -0.3441891944
Bq         1.6295075947    -2.4358010688    -0.3373189246
Bq         1.6276620695    -2.3863097218    -0.3304486548
Bq         1.6258165442    -2.3368183748    -0.3235783850
Bq         1.6239710189    -2.2873270277    -0.3167081153
Bq         1.6221254937    -2.2378356807    -0.3098378455
Bq         1.6202799684    -2.1883443337    -0.3029675757
Bq         1.6184344431    -2.1388529867    -0.2960973059
Bq         1.6165889179    -2.0893616397    -0.2892270362
Bq         1.6147433926    -2.0398702926    -0.2823567664
Bq         1.6128978673    -1.9903789456    -0.2754864966
Bq         1.6110523421    -1.9408875986    -0.2686162268
Bq         1.6092068168    -1.8913962516    -0.2617459570
Bq         1.6073612915    -1.8419049046    -0.2548756873
Bq         1.6055157663    -1.7924135576    -0.2480054175
Bq         1.6036702410    -1.7429222105    -0.2411351477
Bq         1.6018247157    -1.6934308635    -0.2342648779
Bq         1.5999791905    -1.6439395165    -0.2273946081
Bq         1.5981336652    -1.5944481695    -0.2205243384
Bq         1.5962881399    -1.5449568225    -0.2136540686
Bq         1.5944426147    -1.4954654754    -0.2067837988
Bq         1.5925970894    -1.4459741284    -0.1999135290
Bq         1.5907515641    -1.3964827814    -0.1930432592
Bq         1.5889060389    -1.3469914344    -0.1861729895
Bq         1.5870605136    -1.2975000874    -0.1793027197
Bq         1.5852149883    -1.2480087404    -0.1724324499
Bq         1.5833694630    -1.1985173933    -0.1655621801
Bq         1.5815239378    -1.1490260463    -0.1586919103
Bq         1.5796784125    -1.0995346993    -0.1518216406
Bq         1.5778328872    -1.0500433523    -0.1449513708
Bq         1.5759873620    -1.0005520053    -0.1380811010
Bq         1.5741418367    -0.9510606583    -0.1312108312
Bq         1.5722963114    -0.9015693112    -0.1243405614
Bq         1.5704507862    -0.8520779642    -0.1174702917
Bq         1.5686052609    -0.8025866172    -0.1106000219
Bq         1.5667597356    -0.7530952702    -0.1037297521
Bq         1.5649142104    -0.7036039232    -0.0968594823
Bq         1.5630686851    -0.6541125761    -0.0899892125
Bq         1.5612231598    -0.6046212291    -0.0831189428
Bq         1.5593776346    -0.5551298821    -0.0762486730
Bq         1.5575321093    -0.5056385351    -0.0693784032
Bq         1.5556865840    -0.4561471881    -0.0625081334
Bq         1.5538410588    -0.4066558411    -0.0556378637
Bq         1.5519955335    -0.3571644940    -0.0487675939
Bq         1.5501500082    -0.3076731470    -0.0418973241
Bq         1.5483044830    -0.2581818000    -0.0350270543
Bq         1.5464589577    -0.2086904530    -0.0281567845
Bq         1.5446134324    -0.1591991060    -0.0212865148
Bq         1.5427679072    -0.1097077589    -0.0144162450
Bq         1.5409223819    -0.0602164119    -0.0075459752
Bq         1.5390768566    -0.0107250649    -0.0006757054
Bq         1.5372313314     0.0387662821     0.0061945644
Bq         1.5353858061     0.0882576291     0.0130648341
Bq         1.5335402808     0.1377489761     0.0199351039
Bq         1.5316947556     0.1872403232     0.0268053737
Bq         1.5298492303     0.2367316702     0.0336756435
Bq         1.5280037050     0.2862230172     0.0405459133
Bq         1.5261581797     0.3357143642     0.0474161830
Bq         1.5243126545     0.3852057112     0.0542864528
Bq         1.5224671292     0.4346970583     0.0611567226
Bq         1.5206216039     0.4841884053     0.0680269924
Bq         1.5187760787     0.5336797523     0.0748972622
Bq         1.5169305534     0.5831710993     0.0817675319
Bq         1.5150850281     0.6326624463     0.0886378017
Bq         1.5132395029     0.6821537933     0.0955080715
Bq         1.5113939776     0.7316451404     0.1023783413
Bq         1.5095484523     0.7811364874     0.1092486111
Bq         1.5077029271     0.8306278344     0.1161188808
Bq         1.5058574018     0.8801191814     0.1229891506
Bq         1.5040118765     0.9296105284     0.1298594204
Bq         1.5021663513     0.9791018754     0.1367296902
Bq         1.5003208260     1.0285932225     0.1435999600
Bq         1.4984753007     1.0780845695     0.1504702297
Bq         1.4966297755     1.1275759165     0.1573404995
Bq         1.4947842502     1.1770672635     0.1642107693
Bq         1.4929387249     1.2265586105     0.1710810391
Bq         1.4910931997     1.2760499576     0.1779513089
Bq         1.4892476744     1.3255413046     0.1848215786
Bq         1.4874021491     1.3750326516     0.1916918484
Bq         1.4855566239     1.4245239986     0.1985621182
Bq         1.4837110986     1.4740153456     0.2054323880
Bq         1.4818655733     1.5235066926     0.2123026577
Bq         1.4800200481     1.5729980397     0.2191729275
Bq         1.4781745228     1.6224893867     0.2260431973
Bq         1.4763289975     1.6719807337     0.2329134671
Bq         1.4744834723     1.7214720807     0.2397837369
Bq         1.4726379470     1.7709634277     0.2466540066
Bq         1.4707924217     1.8204547748     0.2535242764
Bq         1.4689468965     1.8699461218     0.2603945462
Bq         1.4671013712     1.9194374688     0.2672648160
Bq         1.4652558459     1.9689288158     0.2741350858
Bq         1.4634103206     2.0184201628     0.2810053555
Bq         1.4615647954     2.0679115098     0.2878756253
Bq         1.4597192701     2.1174028569     0.2947458951
Bq         1.4578737448     2.1668942039     0.3016161649
Bq         1.4560282196     2.2163855509     0.3084864347
Bq         1.6888688714    -2.7327491509    -0.3655691524
Bq         1.6870233461    -2.6832578039    -0.3586988826
Bq         1.6851778208    -2.6337664569    -0.3518286128
Bq         1.6833322956    -2.5842751098    -0.3449583431
Bq         1.6814867703    -2.5347837628    -0.3380880733
Bq         1.6796412450    -2.4852924158    -0.3312178035
Bq         1.6777957198    -2.4358010688    -0.3243475337
Bq         1.6759501945    -2.3863097218    -0.3174772639
Bq         1.6741046692    -2.3368183748    -0.3106069942
Bq         1.6722591440    -2.2873270277    -0.3037367244
Bq         1.6704136187    -2.2378356807    -0.2968664546
Bq         1.6685680934    -2.1883443337    -0.2899961848
Bq         1.6667225682    -2.1388529867    -0.2831259150
Bq         1.6648770429    -2.0893616397    -0.2762556453
Bq         1.6630315176    -2.0398702926    -0.2693853755
Bq         1.6611859924    -1.9903789456    -0.2625151057
Bq         1.6593404671    -1.9408875986    -0.2556448359
Bq         1.6574949418    -1.8913962516    -0.2487745661
Bq         1.6556494166    -1.8419049046    -0.2419042964
Bq         1.6538038913    -1.7924135576    -0.2350340266
Bq         1.6519583660    -1.7429222105    -0.2281637568
Bq         1.6501128407    -1.6934308635    -0.2212934870
Bq         1.6482673155    -1.6439395165    -0.2144232172
Bq         1.6464217902    -1.5944481695    -0.2075529475
Bq         1.6445762649    -1.5449568225    -0.2006826777
Bq         1.6427307397    -1.4954654754    -0.1938124079
Bq         1.6408852144    -1.4459741284    -0.1869421381
Bq         1.6390396891    -1.3964827814    -0.1800718683
Bq         1.6371941639    -1.3469914344    -0.1732015986
Bq         1.6353486386    -1.2975000874    -0.1663313288
Bq         1.6335031133    -1.2480087404    -0.1594610590
Bq         1.6316575881    -1.1985173933    -0.1525907892
Bq         1.6298120628    -1.1490260463    -0.1457205194
Bq         1.6279665375    -1.0995346993    -0.1388502497
Bq         1.6261210123    -1.0500433523    -0.1319799799
Bq         1.6242754870    -1.0005520053    -0.1251097101
Bq         1.6224299617    -0.9510606583    -0.1182394403
Bq         1.6205844365    -0.9015693112    -0.1113691706
Bq         1.6187389112    -0.8520779642    -0.1044989008
Bq         1.6168933859    -0.8025866172    -0.0976286310
Bq         1.6150478607    -0.7530952702    -0.0907583612
Bq         1.6132023354    -0.7036039232    -0.0838880914
Bq         1.6113568101    -0.6541125761    -0.0770178217
Bq         1.6095112849    -0.6046212291    -0.0701475519
Bq         1.6076657596    -0.5551298821    -0.0632772821
Bq         1.6058202343    -0.5056385351    -0.0564070123
Bq         1.6039747091    -0.4561471881    -0.0495367425
Bq         1.6021291838    -0.4066558411    -0.0426664728
Bq         1.6002836585    -0.3571644940    -0.0357962030
Bq         1.5984381333    -0.3076731470    -0.0289259332
Bq         1.5965926080    -0.2581818000    -0.0220556634
Bq         1.5947470827    -0.2086904530    -0.0151853936
Bq         1.5929015574    -0.1591991060    -0.0083151239
Bq         1.5910560322    -0.1097077589    -0.0014448541
Bq         1.5892105069    -0.0602164119     0.0054254157
Bq         1.5873649816    -0.0107250649     0.0122956855
Bq         1.5855194564     0.0387662821     0.0191659553
Bq         1.5836739311     0.0882576291     0.0260362250
Bq         1.5818284058     0.1377489761     0.0329064948
Bq         1.5799828806     0.1872403232     0.0397767646
Bq         1.5781373553     0.2367316702     0.0466470344
Bq         1.5762918300     0.2862230172     0.0535173042
Bq         1.5744463048     0.3357143642     0.0603875739
Bq         1.5726007795     0.3852057112     0.0672578437

1
2
3
4
5
6
7
8
9
10
11
12
13
14
15
16
17
18
19
20
21
22
23
24
25
26
27
28
29
30
31
32
33
34
35
36
37
38
39
40
41
42
43
44
45
46
47
48
49
50
51
52
53
54
55
56
57
58
59
60
61
62
63
64
65
66
67
68
69
70
71
72
73
74
75
76
77
78
79
80
81
82
83
84
85
86
87
88
89
90
91
92
93
94
95
96
97
98
99
100
101
102
103
104
105
106
107
108
109
110
111
112
113
114
115
116
117
118
119
120
121
122
123
124
125
126
127
128
129
130
131
132
133
134
135
136
137
138
139
140
141
142
143
144
145
146
147
148
149
150
151
152
153
154
155
156
157
158
159
160
161
162
163
164
165
166
167
168
169
170
171
172
173
174
175
176
177
178
179
180
181
182
183
184
185
186
187
188
189
190
191
192
193
194
195
196
197
198
199
200
201
202
203
204
205
206
207
208
209
210
211
212
213
214
215
216
217
218
219
220
221
222
223
224
225
226
227
228
229
230
231
232
233
234
235
236

