%nproc=8
%mem=1000MB
# rb3lyp/6-311+g** NMR geom=connectivity

Title

0 1
C    -4.0500558   -0.5771862    0.8136712
H    -5.0263804   -1.0082727    1.0024760
C    -3.9381552    0.6617804    0.2400876
H    -4.8252424    1.2338890   -0.0111295
C    -2.6768410    1.2433246    0.0057578
C    -1.4974121    0.5051527    0.2848253
C    -1.6508332   -0.7338728    0.9404026
H    -0.7713646   -1.2730967    1.2633753
C    -2.8898548   -1.2624035    1.1994307
H    -2.9683706   -2.2124563    1.7152676
C    -2.5773185    2.5963696   -0.4192930
H    -3.4870728    3.1412239   -0.6474055
C    -1.3741895    3.2147896   -0.4364030
H    -1.2997315    4.2742019   -0.6578144
C    -0.1719488    2.4994090   -0.1734588
C    -0.2043917    1.1018437    0.0192689
C     1.0513491    3.2042560   -0.0676222
H     1.0427344    4.2819499   -0.1896997
C     2.1942091    2.5487446    0.2579577
H     3.1168527    3.0912848    0.4334727
C     2.2216473    1.1336562    0.2934990
C     1.0486931    0.3945528    0.0302412
C     3.4483363    0.4614633    0.5573939
H     4.3095794    1.0606054    0.8334846
C     3.5427346   -0.8855926    0.4749463
H     4.4731467   -1.3939704    0.7038822
C     2.4490052   -1.6474447   -0.0196319
C     1.2150704   -1.0057258   -0.3013573
C     0.2531113   -1.7434440   -1.0216591
H    -0.6541356   -1.2535051   -1.3462847
C     0.4494193   -3.0628597   -1.3413779
H    -0.3083162   -3.5944309   -1.9054060
C     1.6251726   -3.7207967   -0.9552541
H     1.7670048   -4.7687404   -1.1927019
C     2.6109872   -3.0144177   -0.3183050
H     3.5525612   -3.4902813   -0.0646367
Bq        -1.6359187562    -1.1078175120     1.1070051344
Bq        -1.6358332900    -1.0627918157     1.0852639439
Bq        -1.6357478239    -1.0177661194     1.0635227534
Bq        -1.6356623578    -0.9727404230     1.0417815628
Bq        -1.6355768916    -0.9277147267     1.0200403723
Bq        -1.6354914255    -0.8826890304     0.9982991818
Bq        -1.6354059594    -0.8376633340     0.9765579913
Bq        -1.6353204932    -0.7926376377     0.9548168008
Bq        -1.6352350271    -0.7476119414     0.9330756103
Bq        -1.6351495609    -0.7025862450     0.9113344197
Bq        -1.6350640948    -0.6575605487     0.8895932292
Bq        -1.6349786287    -0.6125348524     0.8678520387
Bq        -1.6348931625    -0.5675091560     0.8461108482
Bq        -1.6348076964    -0.5224834597     0.8243696577
Bq        -1.6347222303    -0.4774577634     0.8026284672
Bq        -1.6346367641    -0.4324320670     0.7808872766
Bq        -1.6345512980    -0.3874063707     0.7591460861
Bq        -1.6344658318    -0.3423806743     0.7374048956
Bq        -1.6343803657    -0.2973549780     0.7156637051
Bq        -1.6342948996    -0.2523292817     0.6939225146
Bq        -1.6342094334    -0.2073035853     0.6721813241
Bq        -1.6341239673    -0.1622778890     0.6504401336
Bq        -1.6340385012    -0.1172521927     0.6286989430
Bq        -1.6339530350    -0.0722264963     0.6069577525
Bq        -1.6338675689    -0.0272008000     0.5852165620
Bq        -1.6337821027     0.0178248963     0.5634753715
Bq        -1.6336966366     0.0628505927     0.5417341810
Bq        -1.6336111705     0.1078762890     0.5199929905
Bq        -1.6335257043     0.1529019853     0.4982517999
Bq        -1.6334402382     0.1979276817     0.4765106094
Bq        -1.6333547721     0.2429533780     0.4547694189
Bq        -1.6332693059     0.2879790743     0.4330282284
Bq        -1.6331838398     0.3330047707     0.4112870379
Bq        -1.6330983736     0.3780304670     0.3895458474
Bq        -1.6330129075     0.4230561634     0.3678046568
Bq        -1.6329274414     0.4680818597     0.3460634663
Bq        -1.6328419752     0.5131075560     0.3243222758
Bq        -1.6327565091     0.5581332524     0.3025810853
Bq        -1.6326710430     0.6031589487     0.2808398948
Bq        -1.6325855768     0.6481846450     0.2590987043
Bq        -1.6325001107     0.6932103414     0.2373575137
Bq        -1.6324146445     0.7382360377     0.2156163232
Bq        -1.6323291784     0.7832617340     0.1938751327
Bq        -1.6322437123     0.8282874304     0.1721339422
Bq        -1.6321582461     0.8733131267     0.1503927517
Bq        -1.6320727800     0.9183388230     0.1286515612
Bq        -1.6319873139     0.9633645194     0.1069103706
Bq        -1.6319018477     1.0083902157     0.0851691801
Bq        -1.6318163816     1.0534159120     0.0634279896
Bq        -1.6317309154     1.0984416084     0.0416867991
Bq        -1.6316454493     1.1434673047     0.0199456086
Bq        -1.6315599832     1.1884930011    -0.0017955819
Bq        -1.6314745170     1.2335186974    -0.0235367725
Bq        -1.6313890509     1.2785443937    -0.0452779630
Bq        -1.6313035848     1.3235700901    -0.0670191535
Bq        -1.6312181186     1.3685957864    -0.0887603440
Bq        -1.6311326525     1.4136214827    -0.1105015345
Bq        -1.6310471864     1.4586471791    -0.1322427250
Bq        -1.6309617202     1.5036728754    -0.1539839155
Bq        -1.6308762541     1.5486985717    -0.1757251061
Bq        -1.6307907879     1.5937242681    -0.1974662966
Bq        -1.6307053218     1.6387499644    -0.2192074871
Bq        -1.6306198557     1.6837756607    -0.2409486776
Bq        -1.6305343895     1.7288013571    -0.2626898681
Bq        -1.6304489234     1.7738270534    -0.2844310586
Bq        -1.6303634573     1.8188527497    -0.3061722492
Bq        -1.6302779911     1.8638784461    -0.3279134397
Bq        -1.6301925250     1.9089041424    -0.3496546302
Bq        -1.6301070588     1.9539298388    -0.3713958207
Bq        -1.6300215927     1.9989555351    -0.3931370112
Bq        -1.6299361266     2.0439812314    -0.4148782017
Bq        -1.6298506604     2.0890069278    -0.4366193923
Bq        -1.6297651943     2.1340326241    -0.4583605828
Bq        -1.6296797282     2.1790583204    -0.4801017733
Bq        -1.6295942620     2.2240840168    -0.5018429638
Bq        -1.5881412621    -2.2784856168     1.6724726398
Bq        -1.5880557959    -2.2334599204     1.6507314493
Bq        -1.5879703298    -2.1884342241     1.6289902588
Bq        -1.5878848637    -2.1434085278     1.6072490682
Bq        -1.5877993975    -2.0983828314     1.5855078777
Bq        -1.5877139314    -2.0533571351     1.5637666872
Bq        -1.5876284653    -2.0083314388     1.5420254967
Bq        -1.5875429991    -1.9633057424     1.5202843062
Bq        -1.5874575330    -1.9182800461     1.4985431157
Bq        -1.5873720668    -1.8732543497     1.4768019251
Bq        -1.5872866007    -1.8282286534     1.4550607346
Bq        -1.5872011346    -1.7832029571     1.4333195441
Bq        -1.5871156684    -1.7381772607     1.4115783536
Bq        -1.5870302023    -1.6931515644     1.3898371631
Bq        -1.5869447362    -1.6481258681     1.3680959726
Bq        -1.5868592700    -1.6031001717     1.3463547820
Bq        -1.5867738039    -1.5580744754     1.3246135915
Bq        -1.5866883377    -1.5130487791     1.3028724010
Bq        -1.5866028716    -1.4680230827     1.2811312105
Bq        -1.5865174055    -1.4229973864     1.2593900200
Bq        -1.5864319393    -1.3779716901     1.2376488295
Bq        -1.5863464732    -1.3329459937     1.2159076389
Bq        -1.5862610071    -1.2879202974     1.1941664484
Bq        -1.5861755409    -1.2428946011     1.1724252579
Bq        -1.5860900748    -1.1978689047     1.1506840674
Bq        -1.5860046086    -1.1528432084     1.1289428769
Bq        -1.5859191425    -1.1078175120     1.1072016864
Bq        -1.5858336764    -1.0627918157     1.0854604958
Bq        -1.5857482102    -1.0177661194     1.0637193053
Bq        -1.5856627441    -0.9727404230     1.0419781148
Bq        -1.5855772780    -0.9277147267     1.0202369243
Bq        -1.5854918118    -0.8826890304     0.9984957338
Bq        -1.5854063457    -0.8376633340     0.9767545433
Bq        -1.5853208795    -0.7926376377     0.9550133527
Bq        -1.5852354134    -0.7476119414     0.9332721622
Bq        -1.5851499473    -0.7025862450     0.9115309717
Bq        -1.5850644811    -0.6575605487     0.8897897812
Bq        -1.5849790150    -0.6125348524     0.8680485907
Bq        -1.5848935489    -0.5675091560     0.8463074002
Bq        -1.5848080827    -0.5224834597     0.8245662097
Bq        -1.5847226166    -0.4774577634     0.8028250191
Bq        -1.5846371504    -0.4324320670     0.7810838286
Bq        -1.5845516843    -0.3874063707     0.7593426381
Bq        -1.5844662182    -0.3423806743     0.7376014476
Bq        -1.5843807520    -0.2973549780     0.7158602571
Bq        -1.5842952859    -0.2523292817     0.6941190666
Bq        -1.5842098198    -0.2073035853     0.6723778760
Bq        -1.5841243536    -0.1622778890     0.6506366855
Bq        -1.5840388875    -0.1172521927     0.6288954950
Bq        -1.5839534213    -0.0722264963     0.6071543045
Bq        -1.5838679552    -0.0272008000     0.5854131140
Bq        -1.5837824891     0.0178248963     0.5636719235
Bq        -1.5836970229     0.0628505927     0.5419307329
Bq        -1.5836115568     0.1078762890     0.5201895424
Bq        -1.5835260907     0.1529019853     0.4984483519
Bq        -1.5834406245     0.1979276817     0.4767071614
Bq        -1.5833551584     0.2429533780     0.4549659709
Bq        -1.5832696923     0.2879790743     0.4332247804
Bq        -1.5831842261     0.3330047707     0.4114835898
Bq        -1.5830987600     0.3780304670     0.3897423993
Bq        -1.5830132938     0.4230561634     0.3680012088
Bq        -1.5829278277     0.4680818597     0.3462600183
Bq        -1.5828423616     0.5131075560     0.3245188278
Bq        -1.5827568954     0.5581332524     0.3027776373
Bq        -1.5826714293     0.6031589487     0.2810364467
Bq        -1.5825859632     0.6481846450     0.2592952562
Bq        -1.5825004970     0.6932103414     0.2375540657
Bq        -1.5824150309     0.7382360377     0.2158128752
Bq        -1.5823295647     0.7832617340     0.1940716847
Bq        -1.5822440986     0.8282874304     0.1723304942
Bq        -1.5821586325     0.8733131267     0.1505893036
Bq        -1.5820731663     0.9183388230     0.1288481131
Bq        -1.5819877002     0.9633645194     0.1071069226
Bq        -1.5819022341     1.0083902157     0.0853657321
Bq        -1.5818167679     1.0534159120     0.0636245416
Bq        -1.5817313018     1.0984416084     0.0418833511
Bq        -1.5816458356     1.1434673047     0.0201421606
Bq        -1.5815603695     1.1884930011    -0.0015990300
Bq        -1.5814749034     1.2335186974    -0.0233402205
Bq        -1.5813894372     1.2785443937    -0.0450814110
Bq        -1.5813039711     1.3235700901    -0.0668226015
Bq        -1.5812185050     1.3685957864    -0.0885637920
Bq        -1.5811330388     1.4136214827    -0.1103049825
Bq        -1.5810475727     1.4586471791    -0.1320461731
Bq        -1.5809621065     1.5036728754    -0.1537873636
Bq        -1.5808766404     1.5486985717    -0.1755285541
Bq        -1.5807911743     1.5937242681    -0.1972697446
Bq        -1.5807057081     1.6387499644    -0.2190109351
Bq        -1.5806202420     1.6837756607    -0.2407521256
Bq        -1.5805347759     1.7288013571    -0.2624933162
Bq        -1.5804493097     1.7738270534    -0.2842345067
Bq        -1.5803638436     1.8188527497    -0.3059756972
Bq        -1.5802783774     1.8638784461    -0.3277168877
Bq        -1.5801929113     1.9089041424    -0.3494580782
Bq        -1.5801074452     1.9539298388    -0.3711992687
Bq        -1.5800219790     1.9989555351    -0.3929404593
Bq        -1.5799365129     2.0439812314    -0.4146816498
Bq        -1.5798510468     2.0890069278    -0.4364228403
Bq        -1.5797655806     2.1340326241    -0.4581640308
Bq        -1.5796801145     2.1790583204    -0.4799052213
Bq        -1.5795946483     2.2240840168    -0.5016464118
Bq        -1.5381416484    -2.2784856168     1.6726691918
Bq        -1.5380561823    -2.2334599204     1.6509280012
Bq        -1.5379707161    -2.1884342241     1.6291868107
Bq        -1.5378852500    -2.1434085278     1.6074456202
Bq        -1.5377997839    -2.0983828314     1.5857044297
Bq        -1.5377143177    -2.0533571351     1.5639632392
Bq        -1.5376288516    -2.0083314388     1.5422220487
Bq        -1.5375433854    -1.9633057424     1.5204808581
Bq        -1.5374579193    -1.9182800461     1.4987396676
Bq        -1.5373724532    -1.8732543497     1.4769984771
Bq        -1.5372869870    -1.8282286534     1.4552572866
Bq        -1.5372015209    -1.7832029571     1.4335160961
Bq        -1.5371160548    -1.7381772607     1.4117749056
Bq        -1.5370305886    -1.6931515644     1.3900337150
Bq        -1.5369451225    -1.6481258681     1.3682925245
Bq        -1.5368596563    -1.6031001717     1.3465513340
Bq        -1.5367741902    -1.5580744754     1.3248101435
Bq        -1.5366887241    -1.5130487791     1.3030689530
Bq        -1.5366032579    -1.4680230827     1.2813277625
Bq        -1.5365177918    -1.4229973864     1.2595865719
Bq        -1.5364323257    -1.3779716901     1.2378453814
Bq        -1.5363468595    -1.3329459937     1.2161041909
Bq        -1.5362613934    -1.2879202974     1.1943630004
Bq        -1.5361759272    -1.2428946011     1.1726218099

1
2
3
4
5
6
7
8
9
10
11
12
13
14
15
16
17
18
19
20
21
22
23
24
25
26
27
28
29
30
31
32
33
34
35
36
37
38
39
40
41
42
43
44
45
46
47
48
49
50
51
52
53
54
55
56
57
58
59
60
61
62
63
64
65
66
67
68
69
70
71
72
73
74
75
76
77
78
79
80
81
82
83
84
85
86
87
88
89
90
91
92
93
94
95
96
97
98
99
100
101
102
103
104
105
106
107
108
109
110
111
112
113
114
115
116
117
118
119
120
121
122
123
124
125
126
127
128
129
130
131
132
133
134
135
136
137
138
139
140
141
142
143
144
145
146
147
148
149
150
151
152
153
154
155
156
157
158
159
160
161
162
163
164
165
166
167
168
169
170
171
172
173
174
175
176
177
178
179
180
181
182
183
184
185
186
187
188
189
190
191
192
193
194
195
196
197
198
199
200
201
202
203
204
205
206
207
208
209
210
211
212
213
214
215
216
217
218
219
220
221
222
223
224
225
226
227
228
229
230
231
232
233
234
235
236

