%nproc=8
%mem=1000MB
# rb3lyp/6-311+g** NMR geom=connectivity

Title

0 1
C    -4.0500558   -0.5771862    0.8136712
H    -5.0263804   -1.0082727    1.0024760
C    -3.9381552    0.6617804    0.2400876
H    -4.8252424    1.2338890   -0.0111295
C    -2.6768410    1.2433246    0.0057578
C    -1.4974121    0.5051527    0.2848253
C    -1.6508332   -0.7338728    0.9404026
H    -0.7713646   -1.2730967    1.2633753
C    -2.8898548   -1.2624035    1.1994307
H    -2.9683706   -2.2124563    1.7152676
C    -2.5773185    2.5963696   -0.4192930
H    -3.4870728    3.1412239   -0.6474055
C    -1.3741895    3.2147896   -0.4364030
H    -1.2997315    4.2742019   -0.6578144
C    -0.1719488    2.4994090   -0.1734588
C    -0.2043917    1.1018437    0.0192689
C     1.0513491    3.2042560   -0.0676222
H     1.0427344    4.2819499   -0.1896997
C     2.1942091    2.5487446    0.2579577
H     3.1168527    3.0912848    0.4334727
C     2.2216473    1.1336562    0.2934990
C     1.0486931    0.3945528    0.0302412
C     3.4483363    0.4614633    0.5573939
H     4.3095794    1.0606054    0.8334846
C     3.5427346   -0.8855926    0.4749463
H     4.4731467   -1.3939704    0.7038822
C     2.4490052   -1.6474447   -0.0196319
C     1.2150704   -1.0057258   -0.3013573
C     0.2531113   -1.7434440   -1.0216591
H    -0.6541356   -1.2535051   -1.3462847
C     0.4494193   -3.0628597   -1.3413779
H    -0.3083162   -3.5944309   -1.9054060
C     1.6251726   -3.7207967   -0.9552541
H     1.7670048   -4.7687404   -1.1927019
C     2.6109872   -3.0144177   -0.3183050
H     3.5525612   -3.4902813   -0.0646367
Bq         3.4293768304    -4.2936410876    -0.3378715004
Bq         3.4238735937    -4.2454445962    -0.3257548752
Bq         3.4183703570    -4.1972481049    -0.3136382499
Bq         3.4128671203    -4.1490516135    -0.3015216247
Bq         3.4073638836    -4.1008551222    -0.2894049995
Bq         3.4018606470    -4.0526586308    -0.2772883743
Bq         3.3963574103    -4.0044621394    -0.2651717490
Bq         3.3908541736    -3.9562656481    -0.2530551238
Bq         3.3853509369    -3.9080691567    -0.2409384986
Bq         3.3798477002    -3.8598726654    -0.2288218733
Bq         3.3743444635    -3.8116761740    -0.2167052481
Bq         3.3688412268    -3.7634796827    -0.2045886229
Bq         3.3633379902    -3.7152831913    -0.1924719977
Bq         3.3578347535    -3.6670866999    -0.1803553724
Bq         3.3523315168    -3.6188902086    -0.1682387472
Bq         3.3468282801    -3.5706937172    -0.1561221220
Bq         3.3413250434    -3.5224972259    -0.1440054967
Bq         3.3358218067    -3.4743007345    -0.1318888715
Bq         3.3303185700    -3.4261042432    -0.1197722463
Bq         3.3248153334    -3.3779077518    -0.1076556211
Bq         3.3193120967    -3.3297112605    -0.0955389958
Bq         3.3138088600    -3.2815147691    -0.0834223706
Bq         3.3083056233    -3.2333182777    -0.0713057454
Bq         3.3028023866    -3.1851217864    -0.0591891201
Bq         3.2972991499    -3.1369252950    -0.0470724949
Bq         3.2917959132    -3.0887288037    -0.0349558697
Bq         3.2862926766    -3.0405323123    -0.0228392445
Bq         3.2807894399    -2.9923358210    -0.0107226192
Bq         3.2752862032    -2.9441393296     0.0013940060
Bq         3.2697829665    -2.8959428383     0.0135106312
Bq         3.2642797298    -2.8477463469     0.0256272565
Bq         3.2587764931    -2.7995498555     0.0377438817
Bq         3.2532732564    -2.7513533642     0.0498605069
Bq         3.2477700197    -2.7031568728     0.0619771321
Bq         3.2422667831    -2.6549603815     0.0740937574
Bq         3.2367635464    -2.6067638901     0.0862103826
Bq         3.2312603097    -2.5585673988     0.0983270078
Bq         3.2257570730    -2.5103709074     0.1104436331
Bq         3.2202538363    -2.4621744160     0.1225602583
Bq         3.2147505996    -2.4139779247     0.1346768835
Bq         3.2092473629    -2.3657814333     0.1467935088
Bq         3.2037441263    -2.3175849420     0.1589101340
Bq         3.1982408896    -2.2693884506     0.1710267592
Bq         3.1927376529    -2.2211919593     0.1831433844
Bq         3.1872344162    -2.1729954679     0.1952600097
Bq         3.1817311795    -2.1247989766     0.2073766349
Bq         3.1762279428    -2.0766024852     0.2194932601
Bq         3.1707247061    -2.0284059938     0.2316098854
Bq         3.1652214695    -1.9802095025     0.2437265106
Bq         3.1597182328    -1.9320130111     0.2558431358
Bq         3.1542149961    -1.8838165198     0.2679597610
Bq         3.1487117594    -1.8356200284     0.2800763863
Bq         3.1432085227    -1.7874235371     0.2921930115
Bq         3.1377052860    -1.7392270457     0.3043096367
Bq         3.1322020493    -1.6910305543     0.3164262620
Bq         3.1266988127    -1.6428340630     0.3285428872
Bq         3.1211955760    -1.5946375716     0.3406595124
Bq         3.1156923393    -1.5464410803     0.3527761376
Bq         3.1101891026    -1.4982445889     0.3648927629
Bq         3.1046858659    -1.4500480976     0.3770093881
Bq         3.0991826292    -1.4018516062     0.3891260133
Bq         3.0936793925    -1.3536551149     0.4012426386
Bq         3.0881761559    -1.3054586235     0.4133592638
Bq         3.0826729192    -1.2572621321     0.4254758890
Bq         3.0771696825    -1.2090656408     0.4375925142
Bq         3.0716664458    -1.1608691494     0.4497091395
Bq         3.0661632091    -1.1126726581     0.4618257647
Bq         3.0606599724    -1.0644761667     0.4739423899
Bq         3.0551567357    -1.0162796754     0.4860590152
Bq         3.0496534991    -0.9680831840     0.4981756404
Bq         3.0441502624    -0.9198866927     0.5102922656
Bq         3.0386470257    -0.8716902013     0.5224088909
Bq         3.0331437890    -0.8234937099     0.5345255161
Bq         3.0276405523    -0.7752972186     0.5466421413
Bq         3.0221373156    -0.7271007272     0.5587587665
Bq         3.0166340789    -0.6789042359     0.5708753918
Bq         3.0111308422    -0.6307077445     0.5829920170
Bq         3.0056276056    -0.5825112532     0.5951086422
Bq         3.0001243689    -0.5343147618     0.6072252675
Bq         2.9946211322    -0.4861182704     0.6193418927
Bq         2.9891178955    -0.4379217791     0.6314585179
Bq         2.9836146588    -0.3897252877     0.6435751431
Bq         2.9781114221    -0.3415287964     0.6556917684
Bq         2.9726081854    -0.2933323050     0.6678083936
Bq         2.9671049488    -0.2451358137     0.6799250188
Bq         2.9616017121    -0.1969393223     0.6920416441
Bq         2.9560984754    -0.1487428310     0.7041582693
Bq         2.9505952387    -0.1005463396     0.7162748945
Bq         2.9450920020    -0.0523498482     0.7283915197
Bq         2.9395887653    -0.0041533569     0.7405081450
Bq         2.9340855286     0.0440431345     0.7526247702
Bq         3.5299336339    -4.7756060011    -0.4383610589
Bq         3.5244303972    -4.7274095098    -0.4262444337
Bq         3.5189271605    -4.6792130184    -0.4141278084
Bq         3.5134239238    -4.6310165271    -0.4020111832
Bq         3.5079206872    -4.5828200357    -0.3898945580
Bq         3.5024174505    -4.5346235444    -0.3777779327
Bq         3.4969142138    -4.4864270530    -0.3656613075
Bq         3.4914109771    -4.4382305616    -0.3535446823
Bq         3.4859077404    -4.3900340703    -0.3414280571
Bq         3.4804045037    -4.3418375789    -0.3293114318
Bq         3.4749012670    -4.2936410876    -0.3171948066
Bq         3.4693980304    -4.2454445962    -0.3050781814
Bq         3.4638947937    -4.1972481049    -0.2929615561
Bq         3.4583915570    -4.1490516135    -0.2808449309
Bq         3.4528883203    -4.1008551222    -0.2687283057
Bq         3.4473850836    -4.0526586308    -0.2566116804
Bq         3.4418818469    -4.0044621394    -0.2444950552
Bq         3.4363786102    -3.9562656481    -0.2323784300
Bq         3.4308753736    -3.9080691567    -0.2202618048
Bq         3.4253721369    -3.8598726654    -0.2081451795
Bq         3.4198689002    -3.8116761740    -0.1960285543
Bq         3.4143656635    -3.7634796827    -0.1839119291
Bq         3.4088624268    -3.7152831913    -0.1717953038
Bq         3.4033591901    -3.6670866999    -0.1596786786
Bq         3.3978559534    -3.6188902086    -0.1475620534
Bq         3.3923527168    -3.5706937172    -0.1354454282
Bq         3.3868494801    -3.5224972259    -0.1233288029
Bq         3.3813462434    -3.4743007345    -0.1112121777
Bq         3.3758430067    -3.4261042432    -0.0990955525
Bq         3.3703397700    -3.3779077518    -0.0869789272
Bq         3.3648365333    -3.3297112605    -0.0748623020
Bq         3.3593332966    -3.2815147691    -0.0627456768
Bq         3.3538300600    -3.2333182777    -0.0506290516
Bq         3.3483268233    -3.1851217864    -0.0385124263
Bq         3.3428235866    -3.1369252950    -0.0263958011
Bq         3.3373203499    -3.0887288037    -0.0142791759
Bq         3.3318171132    -3.0405323123    -0.0021625506
Bq         3.3263138765    -2.9923358210     0.0099540746
Bq         3.3208106398    -2.9441393296     0.0220706998
Bq         3.3153074032    -2.8959428383     0.0341873250
Bq         3.3098041665    -2.8477463469     0.0463039503
Bq         3.3043009298    -2.7995498555     0.0584205755
Bq         3.2987976931    -2.7513533642     0.0705372007
Bq         3.2932944564    -2.7031568728     0.0826538260
Bq         3.2877912197    -2.6549603815     0.0947704512
Bq         3.2822879830    -2.6067638901     0.1068870764
Bq         3.2767847463    -2.5585673988     0.1190037017
Bq         3.2712815097    -2.5103709074     0.1311203269
Bq         3.2657782730    -2.4621744160     0.1432369521
Bq         3.2602750363    -2.4139779247     0.1553535773
Bq         3.2547717996    -2.3657814333     0.1674702026
Bq         3.2492685629    -2.3175849420     0.1795868278
Bq         3.2437653262    -2.2693884506     0.1917034530
Bq         3.2382620895    -2.2211919593     0.2038200783
Bq         3.2327588529    -2.1729954679     0.2159367035
Bq         3.2272556162    -2.1247989766     0.2280533287
Bq         3.2217523795    -2.0766024852     0.2401699539
Bq         3.2162491428    -2.0284059938     0.2522865792
Bq         3.2107459061    -1.9802095025     0.2644032044
Bq         3.2052426694    -1.9320130111     0.2765198296
Bq         3.1997394327    -1.8838165198     0.2886364549
Bq         3.1942361961    -1.8356200284     0.3007530801
Bq         3.1887329594    -1.7874235371     0.3128697053
Bq         3.1832297227    -1.7392270457     0.3249863305
Bq         3.1777264860    -1.6910305543     0.3371029558
Bq         3.1722232493    -1.6428340630     0.3492195810
Bq         3.1667200126    -1.5946375716     0.3613362062
Bq         3.1612167759    -1.5464410803     0.3734528315
Bq         3.1557135393    -1.4982445889     0.3855694567
Bq         3.1502103026    -1.4500480976     0.3976860819
Bq         3.1447070659    -1.4018516062     0.4098027071
Bq         3.1392038292    -1.3536551149     0.4219193324
Bq         3.1337005925    -1.3054586235     0.4340359576
Bq         3.1281973558    -1.2572621321     0.4461525828
Bq         3.1226941191    -1.2090656408     0.4582692081
Bq         3.1171908825    -1.1608691494     0.4703858333
Bq         3.1116876458    -1.1126726581     0.4825024585
Bq         3.1061844091    -1.0644761667     0.4946190838
Bq         3.1006811724    -1.0162796754     0.5067357090
Bq         3.0951779357    -0.9680831840     0.5188523342
Bq         3.0896746990    -0.9198866927     0.5309689594
Bq         3.0841714623    -0.8716902013     0.5430855847
Bq         3.0786682256    -0.8234937099     0.5552022099
Bq         3.0731649890    -0.7752972186     0.5673188351
Bq         3.0676617523    -0.7271007272     0.5794354604
Bq         3.0621585156    -0.6789042359     0.5915520856
Bq         3.0566552789    -0.6307077445     0.6036687108
Bq         3.0511520422    -0.5825112532     0.6157853360
Bq         3.0456488055    -0.5343147618     0.6279019613
Bq         3.0401455688    -0.4861182704     0.6400185865
Bq         3.0346423322    -0.4379217791     0.6521352117
Bq         3.0291390955    -0.3897252877     0.6642518370
Bq         3.0236358588    -0.3415287964     0.6763684622
Bq         3.0181326221    -0.2933323050     0.6884850874
Bq         3.0126293854    -0.2451358137     0.7006017126
Bq         3.0071261487    -0.1969393223     0.7127183379
Bq         3.0016229120    -0.1487428310     0.7248349631
Bq         2.9961196754    -0.1005463396     0.7369515883
Bq         2.9906164387    -0.0523498482     0.7490682136
Bq         2.9851132020    -0.0041533569     0.7611848388
Bq         2.9796099653     0.0440431345     0.7733014640
Bq         3.5754580706    -4.7756060011    -0.4176843651
Bq         3.5699548339    -4.7274095098    -0.4055677398
Bq         3.5644515972    -4.6792130184    -0.3934511146
Bq         3.5589483605    -4.6310165271    -0.3813344894
Bq         3.5534451238    -4.5828200357    -0.3692178642
Bq         3.5479418871    -4.5346235444    -0.3571012389
Bq         3.5424386504    -4.4864270530    -0.3449846137
Bq         3.5369354138    -4.4382305616    -0.3328679885

1
2
3
4
5
6
7
8
9
10
11
12
13
14
15
16
17
18
19
20
21
22
23
24
25
26
27
28
29
30
31
32
33
34
35
36
37
38
39
40
41
42
43
44
45
46
47
48
49
50
51
52
53
54
55
56
57
58
59
60
61
62
63
64
65
66
67
68
69
70
71
72
73
74
75
76
77
78
79
80
81
82
83
84
85
86
87
88
89
90
91
92
93
94
95
96
97
98
99
100
101
102
103
104
105
106
107
108
109
110
111
112
113
114
115
116
117
118
119
120
121
122
123
124
125
126
127
128
129
130
131
132
133
134
135
136
137
138
139
140
141
142
143
144
145
146
147
148
149
150
151
152
153
154
155
156
157
158
159
160
161
162
163
164
165
166
167
168
169
170
171
172
173
174
175
176
177
178
179
180
181
182
183
184
185
186
187
188
189
190
191
192
193
194
195
196
197
198
199
200
201
202
203
204
205
206
207
208
209
210
211
212
213
214
215
216
217
218
219
220
221
222
223
224
225
226
227
228
229
230
231
232
233
234
235
236

