%nproc=8
%mem=1000MB
# rb3lyp/6-311+g** NMR geom=connectivity

Title

0 1
C    -4.0500558   -0.5771862    0.8136712
H    -5.0263804   -1.0082727    1.0024760
C    -3.9381552    0.6617804    0.2400876
H    -4.8252424    1.2338890   -0.0111295
C    -2.6768410    1.2433246    0.0057578
C    -1.4974121    0.5051527    0.2848253
C    -1.6508332   -0.7338728    0.9404026
H    -0.7713646   -1.2730967    1.2633753
C    -2.8898548   -1.2624035    1.1994307
H    -2.9683706   -2.2124563    1.7152676
C    -2.5773185    2.5963696   -0.4192930
H    -3.4870728    3.1412239   -0.6474055
C    -1.3741895    3.2147896   -0.4364030
H    -1.2997315    4.2742019   -0.6578144
C    -0.1719488    2.4994090   -0.1734588
C    -0.2043917    1.1018437    0.0192689
C     1.0513491    3.2042560   -0.0676222
H     1.0427344    4.2819499   -0.1896997
C     2.1942091    2.5487446    0.2579577
H     3.1168527    3.0912848    0.4334727
C     2.2216473    1.1336562    0.2934990
C     1.0486931    0.3945528    0.0302412
C     3.4483363    0.4614633    0.5573939
H     4.3095794    1.0606054    0.8334846
C     3.5427346   -0.8855926    0.4749463
H     4.4731467   -1.3939704    0.7038822
C     2.4490052   -1.6474447   -0.0196319
C     1.2150704   -1.0057258   -0.3013573
C     0.2531113   -1.7434440   -1.0216591
H    -0.6541356   -1.2535051   -1.3462847
C     0.4494193   -3.0628597   -1.3413779
H    -0.3083162   -3.5944309   -1.9054060
C     1.6251726   -3.7207967   -0.9552541
H     1.7670048   -4.7687404   -1.1927019
C     2.6109872   -3.0144177   -0.3183050
H     3.5525612   -3.4902813   -0.0646367
Bq         4.7793088729    -2.7327491509     0.4645998649
Bq         4.7774633476    -2.6832578039     0.4714701346
Bq         4.7756178223    -2.6337664569     0.4783404044
Bq         4.7737722971    -2.5842751098     0.4852106742
Bq         4.7719267718    -2.5347837628     0.4920809440
Bq         4.7700812465    -2.4852924158     0.4989512138
Bq         4.7682357213    -2.4358010688     0.5058214835
Bq         4.7663901960    -2.3863097218     0.5126917533
Bq         4.7645446707    -2.3368183748     0.5195620231
Bq         4.7626991454    -2.2873270277     0.5264322929
Bq         4.7608536202    -2.2378356807     0.5333025627
Bq         4.7590080949    -2.1883443337     0.5401728324
Bq         4.7571625696    -2.1388529867     0.5470431022
Bq         4.7553170444    -2.0893616397     0.5539133720
Bq         4.7534715191    -2.0398702926     0.5607836418
Bq         4.7516259938    -1.9903789456     0.5676539115
Bq         4.7497804686    -1.9408875986     0.5745241813
Bq         4.7479349433    -1.8913962516     0.5813944511
Bq         4.7460894180    -1.8419049046     0.5882647209
Bq         4.7442438928    -1.7924135576     0.5951349907
Bq         4.7423983675    -1.7429222105     0.6020052604
Bq         4.7405528422    -1.6934308635     0.6088755302
Bq         4.7387073170    -1.6439395165     0.6157458000
Bq         4.7368617917    -1.5944481695     0.6226160698
Bq         4.7350162664    -1.5449568225     0.6294863396
Bq         4.7331707412    -1.4954654754     0.6363566093
Bq         4.7313252159    -1.4459741284     0.6432268791
Bq         4.7294796906    -1.3964827814     0.6500971489
Bq         4.7276341654    -1.3469914344     0.6569674187
Bq         4.7257886401    -1.2975000874     0.6638376885
Bq         4.7239431148    -1.2480087404     0.6707079582
Bq         4.7220975896    -1.1985173933     0.6775782280
Bq         4.7202520643    -1.1490260463     0.6844484978
Bq         4.7184065390    -1.0995346993     0.6913187676
Bq         4.7165610138    -1.0500433523     0.6981890374
Bq         4.7147154885    -1.0005520053     0.7050593071
Bq         4.7128699632    -0.9510606583     0.7119295769
Bq         4.7110244380    -0.9015693112     0.7187998467
Bq         4.7091789127    -0.8520779642     0.7256701165
Bq         4.7073333874    -0.8025866172     0.7325403863
Bq         4.7054878622    -0.7530952702     0.7394106560
Bq         4.7036423369    -0.7036039232     0.7462809258
Bq         4.7017968116    -0.6541125761     0.7531511956
Bq         4.6999512863    -0.6046212291     0.7600214654
Bq         4.6981057611    -0.5551298821     0.7668917352
Bq         4.6962602358    -0.5056385351     0.7737620049
Bq         4.6944147105    -0.4561471881     0.7806322747
Bq         4.6925691853    -0.4066558411     0.7875025445
Bq         4.6907236600    -0.3571644940     0.7943728143
Bq         4.6888781347    -0.3076731470     0.8012430841
Bq         4.6870326095    -0.2581818000     0.8081133538
Bq         4.6851870842    -0.2086904530     0.8149836236
Bq         4.6833415589    -0.1591991060     0.8218538934
Bq         4.6814960337    -0.1097077589     0.8287241632
Bq         4.6796505084    -0.0602164119     0.8355944329
Bq         4.6778049831    -0.0107250649     0.8424647027
Bq         4.6759594579     0.0387662821     0.8493349725
Bq         4.6741139326     0.0882576291     0.8562052423
Bq         4.6722684073     0.1377489761     0.8630755121
Bq         4.6704228821     0.1872403232     0.8699457818
Bq         4.6685773568     0.2367316702     0.8768160516
Bq         4.6667318315     0.2862230172     0.8836863214
Bq         4.6648863063     0.3357143642     0.8905565912
Bq         4.6630407810     0.3852057112     0.8974268610
Bq         4.6611952557     0.4346970583     0.9042971307
Bq         4.6593497305     0.4841884053     0.9111674005
Bq         4.6575042052     0.5336797523     0.9180376703
Bq         4.6556586799     0.5831710993     0.9249079401
Bq         4.6538131547     0.6326624463     0.9317782099
Bq         4.6519676294     0.6821537933     0.9386484796
Bq         4.6501221041     0.7316451404     0.9455187494
Bq         4.6482765789     0.7811364874     0.9523890192
Bq         4.6464310536     0.8306278344     0.9592592890
Bq         4.6445855283     0.8801191814     0.9661295588
Bq         4.6427400030     0.9296105284     0.9729998285
Bq         4.6408944778     0.9791018754     0.9798700983
Bq         4.6390489525     1.0285932225     0.9867403681
Bq         4.6372034272     1.0780845695     0.9936106379
Bq         4.6353579020     1.1275759165     1.0004809077
Bq         4.6335123767     1.1770672635     1.0073511774
Bq         4.6316668514     1.2265586105     1.0142214472
Bq         4.6298213262     1.2760499576     1.0210917170
Bq         4.6279758009     1.3255413046     1.0279619868
Bq         4.6261302756     1.3750326516     1.0348322566
Bq         4.6242847504     1.4245239986     1.0417025263
Bq         4.6224392251     1.4740153456     1.0485727961
Bq         4.6205936998     1.5235066926     1.0554430659
Bq         4.6187481746     1.5729980397     1.0623133357
Bq         4.6169026493     1.6224893867     1.0691836054
Bq         4.6150571240     1.6719807337     1.0760538752
Bq         4.6132115988     1.7214720807     1.0829241450
Bq         4.6113660735     1.7709634277     1.0897944148
Bq         4.6095205482     1.8204547748     1.0966646846
Bq         4.6076750230     1.8699461218     1.1035349543
Bq         4.6058294977     1.9194374688     1.1104052241
Bq         4.6039839724     1.9689288158     1.1172754939
Bq         4.6021384472     2.0184201628     1.1241457637
Bq         4.6002929219     2.0679115098     1.1310160335
Bq         4.5984473966     2.1174028569     1.1378863032
Bq         4.5966018714     2.1668942039     1.1447565730
Bq         4.5947563461     2.2163855509     1.1516268428
Bq         4.8275969979    -2.7327491509     0.4775712558
Bq         4.8257514726    -2.6832578039     0.4844415255
Bq         4.8239059473    -2.6337664569     0.4913117953
Bq         4.8220604221    -2.5842751098     0.4981820651
Bq         4.8202148968    -2.5347837628     0.5050523349
Bq         4.8183693715    -2.4852924158     0.5119226046
Bq         4.8165238463    -2.4358010688     0.5187928744
Bq         4.8146783210    -2.3863097218     0.5256631442
Bq         4.8128327957    -2.3368183748     0.5325334140
Bq         4.8109872705    -2.2873270277     0.5394036838
Bq         4.8091417452    -2.2378356807     0.5462739535
Bq         4.8072962199    -2.1883443337     0.5531442233
Bq         4.8054506947    -2.1388529867     0.5600144931
Bq         4.8036051694    -2.0893616397     0.5668847629
Bq         4.8017596441    -2.0398702926     0.5737550327
Bq         4.7999141189    -1.9903789456     0.5806253024
Bq         4.7980685936    -1.9408875986     0.5874955722
Bq         4.7962230683    -1.8913962516     0.5943658420
Bq         4.7943775431    -1.8419049046     0.6012361118
Bq         4.7925320178    -1.7924135576     0.6081063816
Bq         4.7906864925    -1.7429222105     0.6149766513
Bq         4.7888409673    -1.6934308635     0.6218469211
Bq         4.7869954420    -1.6439395165     0.6287171909
Bq         4.7851499167    -1.5944481695     0.6355874607
Bq         4.7833043915    -1.5449568225     0.6424577305
Bq         4.7814588662    -1.4954654754     0.6493280002
Bq         4.7796133409    -1.4459741284     0.6561982700
Bq         4.7777678157    -1.3964827814     0.6630685398
Bq         4.7759222904    -1.3469914344     0.6699388096
Bq         4.7740767651    -1.2975000874     0.6768090794
Bq         4.7722312399    -1.2480087404     0.6836793491
Bq         4.7703857146    -1.1985173933     0.6905496189
Bq         4.7685401893    -1.1490260463     0.6974198887
Bq         4.7666946640    -1.0995346993     0.7042901585
Bq         4.7648491388    -1.0500433523     0.7111604283
Bq         4.7630036135    -1.0005520053     0.7180306980
Bq         4.7611580882    -0.9510606583     0.7249009678
Bq         4.7593125630    -0.9015693112     0.7317712376
Bq         4.7574670377    -0.8520779642     0.7386415074
Bq         4.7556215124    -0.8025866172     0.7455117772
Bq         4.7537759872    -0.7530952702     0.7523820469
Bq         4.7519304619    -0.7036039232     0.7592523167
Bq         4.7500849366    -0.6541125761     0.7661225865
Bq         4.7482394114    -0.6046212291     0.7729928563
Bq         4.7463938861    -0.5551298821     0.7798631260
Bq         4.7445483608    -0.5056385351     0.7867333958
Bq         4.7427028356    -0.4561471881     0.7936036656
Bq         4.7408573103    -0.4066558411     0.8004739354
Bq         4.7390117850    -0.3571644940     0.8073442052
Bq         4.7371662598    -0.3076731470     0.8142144749
Bq         4.7353207345    -0.2581818000     0.8210847447
Bq         4.7334752092    -0.2086904530     0.8279550145
Bq         4.7316296840    -0.1591991060     0.8348252843
Bq         4.7297841587    -0.1097077589     0.8416955541
Bq         4.7279386334    -0.0602164119     0.8485658238
Bq         4.7260931082    -0.0107250649     0.8554360936
Bq         4.7242475829     0.0387662821     0.8623063634
Bq         4.7224020576     0.0882576291     0.8691766332
Bq         4.7205565324     0.1377489761     0.8760469030
Bq         4.7187110071     0.1872403232     0.8829171727
Bq         4.7168654818     0.2367316702     0.8897874425
Bq         4.7150199566     0.2862230172     0.8966577123
Bq         4.7131744313     0.3357143642     0.9035279821
Bq         4.7113289060     0.3852057112     0.9103982519
Bq         4.7094833807     0.4346970583     0.9172685216
Bq         4.7076378555     0.4841884053     0.9241387914
Bq         4.7057923302     0.5336797523     0.9310090612
Bq         4.7039468049     0.5831710993     0.9378793310
Bq         4.7021012797     0.6326624463     0.9447496008
Bq         4.7002557544     0.6821537933     0.9516198705
Bq         4.6984102291     0.7316451404     0.9584901403
Bq         4.6965647039     0.7811364874     0.9653604101
Bq         4.6947191786     0.8306278344     0.9722306799
Bq         4.6928736533     0.8801191814     0.9791009497
Bq         4.6910281281     0.9296105284     0.9859712194
Bq         4.6891826028     0.9791018754     0.9928414892
Bq         4.6873370775     1.0285932225     0.9997117590
Bq         4.6854915523     1.0780845695     1.0065820288
Bq         4.6836460270     1.1275759165     1.0134522985
Bq         4.6818005017     1.1770672635     1.0203225683
Bq         4.6799549765     1.2265586105     1.0271928381
Bq         4.6781094512     1.2760499576     1.0340631079
Bq         4.6762639259     1.3255413046     1.0409333777
Bq         4.6744184007     1.3750326516     1.0478036474
Bq         4.6725728754     1.4245239986     1.0546739172
Bq         4.6707273501     1.4740153456     1.0615441870
Bq         4.6688818249     1.5235066926     1.0684144568
Bq         4.6670362996     1.5729980397     1.0752847266
Bq         4.6651907743     1.6224893867     1.0821549963
Bq         4.6633452491     1.6719807337     1.0890252661
Bq         4.6614997238     1.7214720807     1.0958955359
Bq         4.6596541985     1.7709634277     1.1027658057
Bq         4.6578086733     1.8204547748     1.1096360755
Bq         4.6559631480     1.8699461218     1.1165063452
Bq         4.6541176227     1.9194374688     1.1233766150
Bq         4.6522720975     1.9689288158     1.1302468848
Bq         4.6504265722     2.0184201628     1.1371171546
Bq         4.6485810469     2.0679115098     1.1439874244
Bq         4.6467355216     2.1174028569     1.1508576941

1
2
3
4
5
6
7
8
9
10
11
12
13
14
15
16
17
18
19
20
21
22
23
24
25
26
27
28
29
30
31
32
33
34
35
36
37
38
39
40
41
42
43
44
45
46
47
48
49
50
51
52
53
54
55
56
57
58
59
60
61
62
63
64
65
66
67
68
69
70
71
72
73
74
75
76
77
78
79
80
81
82
83
84
85
86
87
88
89
90
91
92
93
94
95
96
97
98
99
100
101
102
103
104
105
106
107
108
109
110
111
112
113
114
115
116
117
118
119
120
121
122
123
124
125
126
127
128
129
130
131
132
133
134
135
136
137
138
139
140
141
142
143
144
145
146
147
148
149
150
151
152
153
154
155
156
157
158
159
160
161
162
163
164
165
166
167
168
169
170
171
172
173
174
175
176
177
178
179
180
181
182
183
184
185
186
187
188
189
190
191
192
193
194
195
196
197
198
199
200
201
202
203
204
205
206
207
208
209
210
211
212
213
214
215
216
217
218
219
220
221
222
223
224
225
226
227
228
229
230
231
232
233
234
235
236

