%nproc=8
%mem=1000MB
# rb3lyp/6-311+g** NMR geom=connectivity

Title

0 1
C    -4.0500558   -0.5771862    0.8136712
H    -5.0263804   -1.0082727    1.0024760
C    -3.9381552    0.6617804    0.2400876
H    -4.8252424    1.2338890   -0.0111295
C    -2.6768410    1.2433246    0.0057578
C    -1.4974121    0.5051527    0.2848253
C    -1.6508332   -0.7338728    0.9404026
H    -0.7713646   -1.2730967    1.2633753
C    -2.8898548   -1.2624035    1.1994307
H    -2.9683706   -2.2124563    1.7152676
C    -2.5773185    2.5963696   -0.4192930
H    -3.4870728    3.1412239   -0.6474055
C    -1.3741895    3.2147896   -0.4364030
H    -1.2997315    4.2742019   -0.6578144
C    -0.1719488    2.4994090   -0.1734588
C    -0.2043917    1.1018437    0.0192689
C     1.0513491    3.2042560   -0.0676222
H     1.0427344    4.2819499   -0.1896997
C     2.1942091    2.5487446    0.2579577
H     3.1168527    3.0912848    0.4334727
C     2.2216473    1.1336562    0.2934990
C     1.0486931    0.3945528    0.0302412
C     3.4483363    0.4614633    0.5573939
H     4.3095794    1.0606054    0.8334846
C     3.5427346   -0.8855926    0.4749463
H     4.4731467   -1.3939704    0.7038822
C     2.4490052   -1.6474447   -0.0196319
C     1.2150704   -1.0057258   -0.3013573
C     0.2531113   -1.7434440   -1.0216591
H    -0.6541356   -1.2535051   -1.3462847
C     0.4494193   -3.0628597   -1.3413779
H    -0.3083162   -3.5944309   -1.9054060
C     1.6251726   -3.7207967   -0.9552541
H     1.7670048   -4.7687404   -1.1927019
C     2.6109872   -3.0144177   -0.3183050
H     3.5525612   -3.4902813   -0.0646367
Bq        -2.9512048134     3.3142456791    -0.5492648313
Bq        -2.9507183363     3.3627155951    -0.5615298460
Bq        -2.9502318592     3.4111855110    -0.5737948607
Bq        -2.9497453820     3.4596554270    -0.5860598754
Bq        -2.9492589049     3.5081253430    -0.5983248902
Bq        -2.9487724278     3.5565952589    -0.6105899049
Bq        -2.9482859507     3.6050651749    -0.6228549196
Bq        -2.9477994736     3.6535350909    -0.6351199343
Bq        -2.9473129965     3.7020050068    -0.6473849490
Bq        -2.9468265194     3.7504749228    -0.6596499637
Bq        -2.9463400423     3.7989448388    -0.6719149784
Bq        -2.9458535651     3.8474147548    -0.6841799931
Bq        -2.9453670880     3.8958846707    -0.6964450079
Bq        -2.9448806109     3.9443545867    -0.7087100226
Bq        -2.9443941338     3.9928245027    -0.7209750373
Bq        -2.9439076567     4.0412944186    -0.7332400520
Bq        -2.9434211796     4.0897643346    -0.7455050667
Bq        -2.9429347025     4.1382342506    -0.7577700814
Bq        -2.9424482254     4.1867041665    -0.7700350961
Bq        -2.9419617482     4.2351740825    -0.7823001109
Bq        -2.9414752711     4.2836439985    -0.7945651256
Bq        -2.9401622664    -0.5633475985     0.4339179777
Bq        -2.9396757893    -0.5148776825     0.4216529630
Bq        -2.9391893122    -0.4664077665     0.4093879483
Bq        -2.9387028351    -0.4179378506     0.3971229336
Bq        -2.9382163580    -0.3694679346     0.3848579189
Bq        -2.9377298809    -0.3209980186     0.3725929041
Bq        -2.9372434038    -0.2725281027     0.3603278894
Bq        -2.9367569267    -0.2240581867     0.3480628747
Bq        -2.9362704495    -0.1755882707     0.3357978600
Bq        -2.9357839724    -0.1271183548     0.3235328453
Bq        -2.9352974953    -0.0786484388     0.3112678306
Bq        -2.9348110182    -0.0301785228     0.2990028159
Bq        -2.9343245411     0.0182913932     0.2867378012
Bq        -2.9338380640     0.0667613091     0.2744727864
Bq        -2.9333515869     0.1152312251     0.2622077717
Bq        -2.9328651098     0.1637011411     0.2499427570
Bq        -2.9323786326     0.2121710570     0.2376777423
Bq        -2.9318921555     0.2606409730     0.2254127276
Bq        -2.9314056784     0.3091108890     0.2131477129
Bq        -2.9309192013     0.3575808049     0.2008826982
Bq        -2.9304327242     0.4060507209     0.1886176834
Bq        -2.9299462471     0.4545206369     0.1763526687
Bq        -2.9294597700     0.5029905529     0.1640876540
Bq        -2.9289732929     0.5514604688     0.1518226393
Bq        -2.9284868157     0.5999303848     0.1395576246
Bq        -2.9280003386     0.6484003008     0.1272926099
Bq        -2.9275138615     0.6968702167     0.1150275952
Bq        -2.9270273844     0.7453401327     0.1027625805
Bq        -2.9265409073     0.7938100487     0.0904975657
Bq        -2.9260544302     0.8422799646     0.0782325510
Bq        -2.9255679531     0.8907498806     0.0659675363
Bq        -2.9250814760     0.9392197966     0.0537025216
Bq        -2.9245949988     0.9876897125     0.0414375069
Bq        -2.9241085217     1.0361596285     0.0291724922
Bq        -2.9236220446     1.0846295445     0.0169074775
Bq        -2.9231355675     1.1330994605     0.0046424627
Bq        -2.9226490904     1.1815693764    -0.0076225520
Bq        -2.9221626133     1.2300392924    -0.0198875667
Bq        -2.9216761362     1.2785092084    -0.0321525814
Bq        -2.9211896591     1.3269791243    -0.0444175961
Bq        -2.9207031819     1.3754490403    -0.0566826108
Bq        -2.9202167048     1.4239189563    -0.0689476255
Bq        -2.9197302277     1.4723888722    -0.0812126403
Bq        -2.9192437506     1.5208587882    -0.0934776550
Bq        -2.9187572735     1.5693287042    -0.1057426697
Bq        -2.9182707964     1.6177986202    -0.1180076844
Bq        -2.9177843193     1.6662685361    -0.1302726991
Bq        -2.9172978422     1.7147384521    -0.1425377138
Bq        -2.9168113651     1.7632083681    -0.1548027285
Bq        -2.9163248879     1.8116782840    -0.1670677432
Bq        -2.9158384108     1.8601482000    -0.1793327580
Bq        -2.9153519337     1.9086181160    -0.1915977727
Bq        -2.9148654566     1.9570880319    -0.2038627874
Bq        -2.9143789795     2.0055579479    -0.2161278021
Bq        -2.9138925024     2.0540278639    -0.2283928168
Bq        -2.9134060253     2.1024977798    -0.2406578315
Bq        -2.9129195482     2.1509676958    -0.2529228462
Bq        -2.9124330710     2.1994376118    -0.2651878610
Bq        -2.9119465939     2.2479075278    -0.2774528757
Bq        -2.9114601168     2.2963774437    -0.2897178904
Bq        -2.9109736397     2.3448473597    -0.3019829051
Bq        -2.9104871626     2.3933172757    -0.3142479198
Bq        -2.9100006855     2.4417871916    -0.3265129345
Bq        -2.9095142084     2.4902571076    -0.3387779492
Bq        -2.9090277313     2.5387270236    -0.3510429640
Bq        -2.9085412541     2.5871969395    -0.3633079787
Bq        -2.9080547770     2.6356668555    -0.3755729934
Bq        -2.9075682999     2.6841367715    -0.3878380081
Bq        -2.9070818228     2.7326066875    -0.4001030228
Bq        -2.9065953457     2.7810766034    -0.4123680375
Bq        -2.9061088686     2.8295465194    -0.4246330522
Bq        -2.9056223915     2.8780164354    -0.4368980669
Bq        -2.9051359144     2.9264863513    -0.4491630817
Bq        -2.9046494372     2.9749562673    -0.4614280964
Bq        -2.9041629601     3.0234261833    -0.4736931111
Bq        -2.9036764830     3.0718960992    -0.4859581258
Bq        -2.9031900059     3.1203660152    -0.4982231405
Bq        -2.9027035288     3.1688359312    -0.5104881552
Bq        -2.9022170517     3.2173058471    -0.5227531699
Bq        -2.9017305746     3.2657757631    -0.5350181847
Bq        -2.9012440975     3.3142456791    -0.5472831994
Bq        -2.9007576203     3.3627155951    -0.5595482141
Bq        -2.9002711432     3.4111855110    -0.5718132288
Bq        -2.8997846661     3.4596554270    -0.5840782435
Bq        -2.8992981890     3.5081253430    -0.5963432582
Bq        -2.8988117119     3.5565952589    -0.6086082729
Bq        -2.8983252348     3.6050651749    -0.6208732876
Bq        -2.8978387577     3.6535350909    -0.6331383024
Bq        -2.8973522806     3.7020050068    -0.6454033171
Bq        -2.8968658035     3.7504749228    -0.6576683318
Bq        -2.8963793263     3.7989448388    -0.6699333465
Bq        -2.8958928492     3.8474147548    -0.6821983612
Bq        -2.8954063721     3.8958846707    -0.6944633759
Bq        -2.8949198950     3.9443545867    -0.7067283906
Bq        -2.8944334179     3.9928245027    -0.7189934054
Bq        -2.8939469408     4.0412944186    -0.7312584201
Bq        -2.8934604637     4.0897643346    -0.7435234348
Bq        -2.8929739866     4.1382342506    -0.7557884495
Bq        -2.8924875094     4.1867041665    -0.7680534642
Bq        -2.8920010323     4.2351740825    -0.7803184789
Bq        -2.8915145552     4.2836439985    -0.7925834936
Bq        -2.8902015505    -0.5633475985     0.4358996096
Bq        -2.8897150734    -0.5148776825     0.4236345949
Bq        -2.8892285963    -0.4664077665     0.4113695802
Bq        -2.8887421192    -0.4179378506     0.3991045655
Bq        -2.8882556421    -0.3694679346     0.3868395508
Bq        -2.8877691650    -0.3209980186     0.3745745361
Bq        -2.8872826878    -0.2725281027     0.3623095214
Bq        -2.8867962107    -0.2240581867     0.3500445067
Bq        -2.8863097336    -0.1755882707     0.3377794919
Bq        -2.8858232565    -0.1271183548     0.3255144772
Bq        -2.8853367794    -0.0786484388     0.3132494625
Bq        -2.8848503023    -0.0301785228     0.3009844478
Bq        -2.8843638252     0.0182913932     0.2887194331
Bq        -2.8838773481     0.0667613091     0.2764544184
Bq        -2.8833908710     0.1152312251     0.2641894037
Bq        -2.8829043938     0.1637011411     0.2519243889
Bq        -2.8824179167     0.2121710570     0.2396593742
Bq        -2.8819314396     0.2606409730     0.2273943595
Bq        -2.8814449625     0.3091108890     0.2151293448
Bq        -2.8809584854     0.3575808049     0.2028643301
Bq        -2.8804720083     0.4060507209     0.1905993154
Bq        -2.8799855312     0.4545206369     0.1783343007
Bq        -2.8794990541     0.5029905529     0.1660692860
Bq        -2.8790125769     0.5514604688     0.1538042712
Bq        -2.8785260998     0.5999303848     0.1415392565
Bq        -2.8780396227     0.6484003008     0.1292742418
Bq        -2.8775531456     0.6968702167     0.1170092271
Bq        -2.8770666685     0.7453401327     0.1047442124
Bq        -2.8765801914     0.7938100487     0.0924791977
Bq        -2.8760937143     0.8422799646     0.0802141830
Bq        -2.8756072372     0.8907498806     0.0679491682
Bq        -2.8751207600     0.9392197966     0.0556841535
Bq        -2.8746342829     0.9876897125     0.0434191388
Bq        -2.8741478058     1.0361596285     0.0311541241
Bq        -2.8736613287     1.0846295445     0.0188891094
Bq        -2.8731748516     1.1330994605     0.0066240947
Bq        -2.8726883745     1.1815693764    -0.0056409200
Bq        -2.8722018974     1.2300392924    -0.0179059348
Bq        -2.8717154203     1.2785092084    -0.0301709495
Bq        -2.8712289431     1.3269791243    -0.0424359642
Bq        -2.8707424660     1.3754490403    -0.0547009789
Bq        -2.8702559889     1.4239189563    -0.0669659936
Bq        -2.8697695118     1.4723888722    -0.0792310083
Bq        -2.8692830347     1.5208587882    -0.0914960230
Bq        -2.8687965576     1.5693287042    -0.1037610377
Bq        -2.8683100805     1.6177986202    -0.1160260525
Bq        -2.8678236034     1.6662685361    -0.1282910672
Bq        -2.8673371262     1.7147384521    -0.1405560819
Bq        -2.8668506491     1.7632083681    -0.1528210966
Bq        -2.8663641720     1.8116782840    -0.1650861113
Bq        -2.8658776949     1.8601482000    -0.1773511260
Bq        -2.8653912178     1.9086181160    -0.1896161407
Bq        -2.8649047407     1.9570880319    -0.2018811555
Bq        -2.8644182636     2.0055579479    -0.2141461702
Bq        -2.8639317865     2.0540278639    -0.2264111849
Bq        -2.8634453093     2.1024977798    -0.2386761996
Bq        -2.8629588322     2.1509676958    -0.2509412143
Bq        -2.8624723551     2.1994376118    -0.2632062290
Bq        -2.8619858780     2.2479075278    -0.2754712437
Bq        -2.8614994009     2.2963774437    -0.2877362585
Bq        -2.8610129238     2.3448473597    -0.3000012732
Bq        -2.8605264467     2.3933172757    -0.3122662879
Bq        -2.8600399696     2.4417871916    -0.3245313026
Bq        -2.8595534925     2.4902571076    -0.3367963173
Bq        -2.8590670153     2.5387270236    -0.3490613320
Bq        -2.8585805382     2.5871969395    -0.3613263467
Bq        -2.8580940611     2.6356668555    -0.3735913614
Bq        -2.8576075840     2.6841367715    -0.3858563762
Bq        -2.8571211069     2.7326066875    -0.3981213909
Bq        -2.8566346298     2.7810766034    -0.4103864056
Bq        -2.8561481527     2.8295465194    -0.4226514203
Bq        -2.8556616756     2.8780164354    -0.4349164350
Bq        -2.8551751984     2.9264863513    -0.4471814497
Bq        -2.8546887213     2.9749562673    -0.4594464644
Bq        -2.8542022442     3.0234261833    -0.4717114792
Bq        -2.8537157671     3.0718960992    -0.4839764939
Bq        -2.8532292900     3.1203660152    -0.4962415086
Bq        -2.8527428129     3.1688359312    -0.5085065233

1
2
3
4
5
6
7
8
9
10
11
12
13
14
15
16
17
18
19
20
21
22
23
24
25
26
27
28
29
30
31
32
33
34
35
36
37
38
39
40
41
42
43
44
45
46
47
48
49
50
51
52
53
54
55
56
57
58
59
60
61
62
63
64
65
66
67
68
69
70
71
72
73
74
75
76
77
78
79
80
81
82
83
84
85
86
87
88
89
90
91
92
93
94
95
96
97
98
99
100
101
102
103
104
105
106
107
108
109
110
111
112
113
114
115
116
117
118
119
120
121
122
123
124
125
126
127
128
129
130
131
132
133
134
135
136
137
138
139
140
141
142
143
144
145
146
147
148
149
150
151
152
153
154
155
156
157
158
159
160
161
162
163
164
165
166
167
168
169
170
171
172
173
174
175
176
177
178
179
180
181
182
183
184
185
186
187
188
189
190
191
192
193
194
195
196
197
198
199
200
201
202
203
204
205
206
207
208
209
210
211
212
213
214
215
216
217
218
219
220
221
222
223
224
225
226
227
228
229
230
231
232
233
234
235
236

