%nproc=8
%mem=1000MB
# rb3lyp/6-311+g** NMR geom=connectivity

Title

0 1
C    -4.0500558   -0.5771862    0.8136712
H    -5.0263804   -1.0082727    1.0024760
C    -3.9381552    0.6617804    0.2400876
H    -4.8252424    1.2338890   -0.0111295
C    -2.6768410    1.2433246    0.0057578
C    -1.4974121    0.5051527    0.2848253
C    -1.6508332   -0.7338728    0.9404026
H    -0.7713646   -1.2730967    1.2633753
C    -2.8898548   -1.2624035    1.1994307
H    -2.9683706   -2.2124563    1.7152676
C    -2.5773185    2.5963696   -0.4192930
H    -3.4870728    3.1412239   -0.6474055
C    -1.3741895    3.2147896   -0.4364030
H    -1.2997315    4.2742019   -0.6578144
C    -0.1719488    2.4994090   -0.1734588
C    -0.2043917    1.1018437    0.0192689
C     1.0513491    3.2042560   -0.0676222
H     1.0427344    4.2819499   -0.1896997
C     2.1942091    2.5487446    0.2579577
H     3.1168527    3.0912848    0.4334727
C     2.2216473    1.1336562    0.2934990
C     1.0486931    0.3945528    0.0302412
C     3.4483363    0.4614633    0.5573939
H     4.3095794    1.0606054    0.8334846
C     3.5427346   -0.8855926    0.4749463
H     4.4731467   -1.3939704    0.7038822
C     2.4490052   -1.6474447   -0.0196319
C     1.2150704   -1.0057258   -0.3013573
C     0.2531113   -1.7434440   -1.0216591
H    -0.6541356   -1.2535051   -1.3462847
C     0.4494193   -3.0628597   -1.3413779
H    -0.3083162   -3.5944309   -1.9054060
C     1.6251726   -3.7207967   -0.9552541
H     1.7670048   -4.7687404   -1.1927019
C     2.6109872   -3.0144177   -0.3183050
H     3.5525612   -3.4902813   -0.0646367
Bq         1.2699533525     0.7316451404     0.0375213868
Bq         1.2681078272     0.7811364874     0.0443916566
Bq         1.2662623020     0.8306278344     0.0512619264
Bq         1.2644167767     0.8801191814     0.0581321961
Bq         1.2625712514     0.9296105284     0.0650024659
Bq         1.2607257262     0.9791018754     0.0718727357
Bq         1.2588802009     1.0285932225     0.0787430055
Bq         1.2570346756     1.0780845695     0.0856132753
Bq         1.2551891503     1.1275759165     0.0924835450
Bq         1.2533436251     1.1770672635     0.0993538148
Bq         1.2514980998     1.2265586105     0.1062240846
Bq         1.2496525745     1.2760499576     0.1130943544
Bq         1.2478070493     1.3255413046     0.1199646242
Bq         1.2459615240     1.3750326516     0.1268348939
Bq         1.2441159987     1.4245239986     0.1337051637
Bq         1.2422704735     1.4740153456     0.1405754335
Bq         1.2404249482     1.5235066926     0.1474457033
Bq         1.2385794229     1.5729980397     0.1543159731
Bq         1.2367338977     1.6224893867     0.1611862428
Bq         1.2348883724     1.6719807337     0.1680565126
Bq         1.2330428471     1.7214720807     0.1749267824
Bq         1.2311973219     1.7709634277     0.1817970522
Bq         1.2293517966     1.8204547748     0.1886673220
Bq         1.2275062713     1.8699461218     0.1955375917
Bq         1.2256607461     1.9194374688     0.2024078615
Bq         1.2238152208     1.9689288158     0.2092781313
Bq         1.2219696955     2.0184201628     0.2161484011
Bq         1.2201241703     2.0679115098     0.2230186708
Bq         1.2182786450     2.1174028569     0.2298889406
Bq         1.2164331197     2.1668942039     0.2367592104
Bq         1.2145875945     2.2163855509     0.2436294802
Bq         1.4474282463    -2.7327491509    -0.4304261069
Bq         1.4455827210    -2.6832578039    -0.4235558371
Bq         1.4437371957    -2.6337664569    -0.4166855673
Bq         1.4418916704    -2.5842751098    -0.4098152975
Bq         1.4400461452    -2.5347837628    -0.4029450277
Bq         1.4382006199    -2.4852924158    -0.3960747580
Bq         1.4363550946    -2.4358010688    -0.3892044882
Bq         1.4345095694    -2.3863097218    -0.3823342184
Bq         1.4326640441    -2.3368183748    -0.3754639486
Bq         1.4308185188    -2.2873270277    -0.3685936788
Bq         1.4289729936    -2.2378356807    -0.3617234091
Bq         1.4271274683    -2.1883443337    -0.3548531393
Bq         1.4252819430    -2.1388529867    -0.3479828695
Bq         1.4234364178    -2.0893616397    -0.3411125997
Bq         1.4215908925    -2.0398702926    -0.3342423299
Bq         1.4197453672    -1.9903789456    -0.3273720602
Bq         1.4178998420    -1.9408875986    -0.3205017904
Bq         1.4160543167    -1.8913962516    -0.3136315206
Bq         1.4142087914    -1.8419049046    -0.3067612508
Bq         1.4123632662    -1.7924135576    -0.2998909811
Bq         1.4105177409    -1.7429222105    -0.2930207113
Bq         1.4086722156    -1.6934308635    -0.2861504415
Bq         1.4068266904    -1.6439395165    -0.2792801717
Bq         1.4049811651    -1.5944481695    -0.2724099019
Bq         1.4031356398    -1.5449568225    -0.2655396322
Bq         1.4012901146    -1.4954654754    -0.2586693624
Bq         1.3994445893    -1.4459741284    -0.2517990926
Bq         1.3975990640    -1.3964827814    -0.2449288228
Bq         1.3957535388    -1.3469914344    -0.2380585530
Bq         1.3939080135    -1.2975000874    -0.2311882833
Bq         1.3920624882    -1.2480087404    -0.2243180135
Bq         1.3902169630    -1.1985173933    -0.2174477437
Bq         1.3883714377    -1.1490260463    -0.2105774739
Bq         1.3865259124    -1.0995346993    -0.2037072041
Bq         1.3846803872    -1.0500433523    -0.1968369344
Bq         1.3828348619    -1.0005520053    -0.1899666646
Bq         1.3809893366    -0.9510606583    -0.1830963948
Bq         1.3791438113    -0.9015693112    -0.1762261250
Bq         1.3772982861    -0.8520779642    -0.1693558552
Bq         1.3754527608    -0.8025866172    -0.1624855855
Bq         1.3736072355    -0.7530952702    -0.1556153157
Bq         1.3717617103    -0.7036039232    -0.1487450459
Bq         1.3699161850    -0.6541125761    -0.1418747761
Bq         1.3680706597    -0.6046212291    -0.1350045063
Bq         1.3662251345    -0.5551298821    -0.1281342366
Bq         1.3643796092    -0.5056385351    -0.1212639668
Bq         1.3625340839    -0.4561471881    -0.1143936970
Bq         1.3606885587    -0.4066558411    -0.1075234272
Bq         1.3588430334    -0.3571644940    -0.1006531574
Bq         1.3569975081    -0.3076731470    -0.0937828877
Bq         1.3551519829    -0.2581818000    -0.0869126179
Bq         1.3533064576    -0.2086904530    -0.0800423481
Bq         1.3514609323    -0.1591991060    -0.0731720783
Bq         1.3496154071    -0.1097077589    -0.0663018086
Bq         1.3477698818    -0.0602164119    -0.0594315388
Bq         1.3459243565    -0.0107250649    -0.0525612690
Bq         1.3440788313     0.0387662821    -0.0456909992
Bq         1.3422333060     0.0882576291    -0.0388207294
Bq         1.3403877807     0.1377489761    -0.0319504597
Bq         1.3385422555     0.1872403232    -0.0250801899
Bq         1.3366967302     0.2367316702    -0.0182099201
Bq         1.3348512049     0.2862230172    -0.0113396503
Bq         1.3330056797     0.3357143642    -0.0044693805
Bq         1.3311601544     0.3852057112     0.0024008892
Bq         1.3293146291     0.4346970583     0.0092711590
Bq         1.3274691039     0.4841884053     0.0161414288
Bq         1.3256235786     0.5336797523     0.0230116986
Bq         1.3237780533     0.5831710993     0.0298819684
Bq         1.3219325280     0.6326624463     0.0367522381
Bq         1.3200870028     0.6821537933     0.0436225079
Bq         1.3182414775     0.7316451404     0.0504927777
Bq         1.3163959522     0.7811364874     0.0573630475
Bq         1.3145504270     0.8306278344     0.0642333173
Bq         1.3127049017     0.8801191814     0.0711035870
Bq         1.3108593764     0.9296105284     0.0779738568
Bq         1.3090138512     0.9791018754     0.0848441266
Bq         1.3071683259     1.0285932225     0.0917143964
Bq         1.3053228006     1.0780845695     0.0985846662
Bq         1.3034772754     1.1275759165     0.1054549359
Bq         1.3016317501     1.1770672635     0.1123252057
Bq         1.2997862248     1.2265586105     0.1191954755
Bq         1.2979406996     1.2760499576     0.1260657453
Bq         1.2960951743     1.3255413046     0.1329360151
Bq         1.2942496490     1.3750326516     0.1398062848
Bq         1.2924041238     1.4245239986     0.1466765546
Bq         1.2905585985     1.4740153456     0.1535468244
Bq         1.2887130732     1.5235066926     0.1604170942
Bq         1.2868675480     1.5729980397     0.1672873639
Bq         1.2850220227     1.6224893867     0.1741576337
Bq         1.2831764974     1.6719807337     0.1810279035
Bq         1.2813309722     1.7214720807     0.1878981733
Bq         1.2794854469     1.7709634277     0.1947684431
Bq         1.2776399216     1.8204547748     0.2016387128
Bq         1.2757943964     1.8699461218     0.2085089826
Bq         1.2739488711     1.9194374688     0.2153792524
Bq         1.2721033458     1.9689288158     0.2222495222
Bq         1.2702578206     2.0184201628     0.2291197920
Bq         1.2684122953     2.0679115098     0.2359900617
Bq         1.2665667700     2.1174028569     0.2428603315
Bq         1.2647212448     2.1668942039     0.2497306013
Bq         1.2628757195     2.2163855509     0.2566008711
Bq         1.4957163713    -2.7327491509    -0.4174547160
Bq         1.4938708460    -2.6832578039    -0.4105844462
Bq         1.4920253207    -2.6337664569    -0.4037141764
Bq         1.4901797955    -2.5842751098    -0.3968439066
Bq         1.4883342702    -2.5347837628    -0.3899736368
Bq         1.4864887449    -2.4852924158    -0.3831033671
Bq         1.4846432197    -2.4358010688    -0.3762330973
Bq         1.4827976944    -2.3863097218    -0.3693628275
Bq         1.4809521691    -2.3368183748    -0.3624925577
Bq         1.4791066439    -2.2873270277    -0.3556222880
Bq         1.4772611186    -2.2378356807    -0.3487520182
Bq         1.4754155933    -2.1883443337    -0.3418817484
Bq         1.4735700681    -2.1388529867    -0.3350114786
Bq         1.4717245428    -2.0893616397    -0.3281412088
Bq         1.4698790175    -2.0398702926    -0.3212709391
Bq         1.4680334923    -1.9903789456    -0.3144006693
Bq         1.4661879670    -1.9408875986    -0.3075303995
Bq         1.4643424417    -1.8913962516    -0.3006601297
Bq         1.4624969165    -1.8419049046    -0.2937898599
Bq         1.4606513912    -1.7924135576    -0.2869195902
Bq         1.4588058659    -1.7429222105    -0.2800493204
Bq         1.4569603407    -1.6934308635    -0.2731790506
Bq         1.4551148154    -1.6439395165    -0.2663087808
Bq         1.4532692901    -1.5944481695    -0.2594385110
Bq         1.4514237649    -1.5449568225    -0.2525682413
Bq         1.4495782396    -1.4954654754    -0.2456979715
Bq         1.4477327143    -1.4459741284    -0.2388277017
Bq         1.4458871890    -1.3964827814    -0.2319574319
Bq         1.4440416638    -1.3469914344    -0.2250871621
Bq         1.4421961385    -1.2975000874    -0.2182168924
Bq         1.4403506132    -1.2480087404    -0.2113466226
Bq         1.4385050880    -1.1985173933    -0.2044763528
Bq         1.4366595627    -1.1490260463    -0.1976060830
Bq         1.4348140374    -1.0995346993    -0.1907358132
Bq         1.4329685122    -1.0500433523    -0.1838655435
Bq         1.4311229869    -1.0005520053    -0.1769952737
Bq         1.4292774616    -0.9510606583    -0.1701250039
Bq         1.4274319364    -0.9015693112    -0.1632547341
Bq         1.4255864111    -0.8520779642    -0.1563844643
Bq         1.4237408858    -0.8025866172    -0.1495141946
Bq         1.4218953606    -0.7530952702    -0.1426439248
Bq         1.4200498353    -0.7036039232    -0.1357736550
Bq         1.4182043100    -0.6541125761    -0.1289033852
Bq         1.4163587848    -0.6046212291    -0.1220331155
Bq         1.4145132595    -0.5551298821    -0.1151628457
Bq         1.4126677342    -0.5056385351    -0.1082925759
Bq         1.4108222090    -0.4561471881    -0.1014223061
Bq         1.4089766837    -0.4066558411    -0.0945520363
Bq         1.4071311584    -0.3571644940    -0.0876817666
Bq         1.4052856332    -0.3076731470    -0.0808114968
Bq         1.4034401079    -0.2581818000    -0.0739412270
Bq         1.4015945826    -0.2086904530    -0.0670709572
Bq         1.3997490574    -0.1591991060    -0.0602006874
Bq         1.3979035321    -0.1097077589    -0.0533304177
Bq         1.3960580068    -0.0602164119    -0.0464601479
Bq         1.3942124816    -0.0107250649    -0.0395898781
Bq         1.3923669563     0.0387662821    -0.0327196083
Bq         1.3905214310     0.0882576291    -0.0258493385
Bq         1.3886759057     0.1377489761    -0.0189790688
Bq         1.3868303805     0.1872403232    -0.0121087990
Bq         1.3849848552     0.2367316702    -0.0052385292
Bq         1.3831393299     0.2862230172     0.0016317406
Bq         1.3812938047     0.3357143642     0.0085020104
Bq         1.3794482794     0.3852057112     0.0153722801
Bq         1.3776027541     0.4346970583     0.0222425499
Bq         1.3757572289     0.4841884053     0.0291128197
Bq         1.3739117036     0.5336797523     0.0359830895
Bq         1.3720661783     0.5831710993     0.0428533593

1
2
3
4
5
6
7
8
9
10
11
12
13
14
15
16
17
18
19
20
21
22
23
24
25
26
27
28
29
30
31
32
33
34
35
36
37
38
39
40
41
42
43
44
45
46
47
48
49
50
51
52
53
54
55
56
57
58
59
60
61
62
63
64
65
66
67
68
69
70
71
72
73
74
75
76
77
78
79
80
81
82
83
84
85
86
87
88
89
90
91
92
93
94
95
96
97
98
99
100
101
102
103
104
105
106
107
108
109
110
111
112
113
114
115
116
117
118
119
120
121
122
123
124
125
126
127
128
129
130
131
132
133
134
135
136
137
138
139
140
141
142
143
144
145
146
147
148
149
150
151
152
153
154
155
156
157
158
159
160
161
162
163
164
165
166
167
168
169
170
171
172
173
174
175
176
177
178
179
180
181
182
183
184
185
186
187
188
189
190
191
192
193
194
195
196
197
198
199
200
201
202
203
204
205
206
207
208
209
210
211
212
213
214
215
216
217
218
219
220
221
222
223
224
225
226
227
228
229
230
231
232
233
234
235
236

