%nproc=8
%mem=1000MB
# rb3lyp/6-311+g** NMR geom=connectivity

Title

0 1
C    -4.0500558   -0.5771862    0.8136712
H    -5.0263804   -1.0082727    1.0024760
C    -3.9381552    0.6617804    0.2400876
H    -4.8252424    1.2338890   -0.0111295
C    -2.6768410    1.2433246    0.0057578
C    -1.4974121    0.5051527    0.2848253
C    -1.6508332   -0.7338728    0.9404026
H    -0.7713646   -1.2730967    1.2633753
C    -2.8898548   -1.2624035    1.1994307
H    -2.9683706   -2.2124563    1.7152676
C    -2.5773185    2.5963696   -0.4192930
H    -3.4870728    3.1412239   -0.6474055
C    -1.3741895    3.2147896   -0.4364030
H    -1.2997315    4.2742019   -0.6578144
C    -0.1719488    2.4994090   -0.1734588
C    -0.2043917    1.1018437    0.0192689
C     1.0513491    3.2042560   -0.0676222
H     1.0427344    4.2819499   -0.1896997
C     2.1942091    2.5487446    0.2579577
H     3.1168527    3.0912848    0.4334727
C     2.2216473    1.1336562    0.2934990
C     1.0486931    0.3945528    0.0302412
C     3.4483363    0.4614633    0.5573939
H     4.3095794    1.0606054    0.8334846
C     3.5427346   -0.8855926    0.4749463
H     4.4731467   -1.3939704    0.7038822
C     2.4490052   -1.6474447   -0.0196319
C     1.2150704   -1.0057258   -0.3013573
C     0.2531113   -1.7434440   -1.0216591
H    -0.6541356   -1.2535051   -1.3462847
C     0.4494193   -3.0628597   -1.3413779
H    -0.3083162   -3.5944309   -1.9054060
C     1.6251726   -3.7207967   -0.9552541
H     1.7670048   -4.7687404   -1.1927019
C     2.6109872   -3.0144177   -0.3183050
H     3.5525612   -3.4902813   -0.0646367
Bq         2.6736955606    -0.6541125761     0.2083527780
Bq         2.6718500354    -0.6046212291     0.2152230478
Bq         2.6700045101    -0.5551298821     0.2220933176
Bq         2.6681589848    -0.5056385351     0.2289635874
Bq         2.6663134596    -0.4561471881     0.2358338571
Bq         2.6644679343    -0.4066558411     0.2427041269
Bq         2.6626224090    -0.3571644940     0.2495743967
Bq         2.6607768838    -0.3076731470     0.2564446665
Bq         2.6589313585    -0.2581818000     0.2633149363
Bq         2.6570858332    -0.2086904530     0.2701852060
Bq         2.6552403080    -0.1591991060     0.2770554758
Bq         2.6533947827    -0.1097077589     0.2839257456
Bq         2.6515492574    -0.0602164119     0.2907960154
Bq         2.6497037322    -0.0107250649     0.2976662852
Bq         2.6478582069     0.0387662821     0.3045365549
Bq         2.6460126816     0.0882576291     0.3114068247
Bq         2.6441671564     0.1377489761     0.3182770945
Bq         2.6423216311     0.1872403232     0.3251473643
Bq         2.6404761058     0.2367316702     0.3320176341
Bq         2.6386305806     0.2862230172     0.3388879038
Bq         2.6367850553     0.3357143642     0.3457581736
Bq         2.6349395300     0.3852057112     0.3526284434
Bq         2.6330940047     0.4346970583     0.3594987132
Bq         2.6312484795     0.4841884053     0.3663689830
Bq         2.6294029542     0.5336797523     0.3732392527
Bq         2.6275574289     0.5831710993     0.3801095225
Bq         2.6257119037     0.6326624463     0.3869797923
Bq         2.6238663784     0.6821537933     0.3938500621
Bq         2.6220208531     0.7316451404     0.4007203319
Bq         2.6201753279     0.7811364874     0.4075906016
Bq         2.6183298026     0.8306278344     0.4144608714
Bq         2.6164842773     0.8801191814     0.4213311412
Bq         2.6146387521     0.9296105284     0.4282014110
Bq         2.6127932268     0.9791018754     0.4350716807
Bq         2.6109477015     1.0285932225     0.4419419505
Bq         2.6091021763     1.0780845695     0.4488122203
Bq         2.6072566510     1.1275759165     0.4556824901
Bq         2.6054111257     1.1770672635     0.4625527599
Bq         2.6035656005     1.2265586105     0.4694230296
Bq         2.6017200752     1.2760499576     0.4762932994
Bq         2.5998745499     1.3255413046     0.4831635692
Bq         2.5980290247     1.3750326516     0.4900338390
Bq         2.5961834994     1.4245239986     0.4969041088
Bq         2.5943379741     1.4740153456     0.5037743785
Bq         2.5924924489     1.5235066926     0.5106446483
Bq         2.5906469236     1.5729980397     0.5175149181
Bq         2.5888013983     1.6224893867     0.5243851879
Bq         2.5869558731     1.6719807337     0.5312554577
Bq         2.5851103478     1.7214720807     0.5381257274
Bq         2.5832648225     1.7709634277     0.5449959972
Bq         2.5814192973     1.8204547748     0.5518662670
Bq         2.5795737720     1.8699461218     0.5587365368
Bq         2.5777282467     1.9194374688     0.5656068066
Bq         2.5758827215     1.9689288158     0.5724770763
Bq         2.5740371962     2.0184201628     0.5793473461
Bq         2.5721916709     2.0679115098     0.5862176159
Bq         2.5703461456     2.1174028569     0.5930878857
Bq         2.5685006204     2.1668942039     0.5999581555
Bq         2.5666550951     2.2163855509     0.6068284252
Bq         2.7994957469    -2.7327491509    -0.0672271618
Bq         2.7976502216    -2.6832578039    -0.0603568920
Bq         2.7958046964    -2.6337664569    -0.0534866223
Bq         2.7939591711    -2.5842751098    -0.0466163525
Bq         2.7921136458    -2.5347837628    -0.0397460827
Bq         2.7902681206    -2.4852924158    -0.0328758129
Bq         2.7884225953    -2.4358010688    -0.0260055431
Bq         2.7865770700    -2.3863097218    -0.0191352734
Bq         2.7847315448    -2.3368183748    -0.0122650036
Bq         2.7828860195    -2.2873270277    -0.0053947338
Bq         2.7810404942    -2.2378356807     0.0014755360
Bq         2.7791949690    -2.1883443337     0.0083458058
Bq         2.7773494437    -2.1388529867     0.0152160755
Bq         2.7755039184    -2.0893616397     0.0220863453
Bq         2.7736583932    -2.0398702926     0.0289566151
Bq         2.7718128679    -1.9903789456     0.0358268849
Bq         2.7699673426    -1.9408875986     0.0426971547
Bq         2.7681218174    -1.8913962516     0.0495674244
Bq         2.7662762921    -1.8419049046     0.0564376942
Bq         2.7644307668    -1.7924135576     0.0633079640
Bq         2.7625852416    -1.7429222105     0.0701782338
Bq         2.7607397163    -1.6934308635     0.0770485036
Bq         2.7588941910    -1.6439395165     0.0839187733
Bq         2.7570486657    -1.5944481695     0.0907890431
Bq         2.7552031405    -1.5449568225     0.0976593129
Bq         2.7533576152    -1.4954654754     0.1045295827
Bq         2.7515120899    -1.4459741284     0.1113998524
Bq         2.7496665647    -1.3964827814     0.1182701222
Bq         2.7478210394    -1.3469914344     0.1251403920
Bq         2.7459755141    -1.2975000874     0.1320106618
Bq         2.7441299889    -1.2480087404     0.1388809316
Bq         2.7422844636    -1.1985173933     0.1457512013
Bq         2.7404389383    -1.1490260463     0.1526214711
Bq         2.7385934131    -1.0995346993     0.1594917409
Bq         2.7367478878    -1.0500433523     0.1663620107
Bq         2.7349023625    -1.0005520053     0.1732322805
Bq         2.7330568373    -0.9510606583     0.1801025502
Bq         2.7312113120    -0.9015693112     0.1869728200
Bq         2.7293657867    -0.8520779642     0.1938430898
Bq         2.7275202615    -0.8025866172     0.2007133596
Bq         2.7256747362    -0.7530952702     0.2075836294
Bq         2.7238292109    -0.7036039232     0.2144538991
Bq         2.7219836857    -0.6541125761     0.2213241689
Bq         2.7201381604    -0.6046212291     0.2281944387
Bq         2.7182926351    -0.5551298821     0.2350647085
Bq         2.7164471099    -0.5056385351     0.2419349783
Bq         2.7146015846    -0.4561471881     0.2488052480
Bq         2.7127560593    -0.4066558411     0.2556755178
Bq         2.7109105341    -0.3571644940     0.2625457876
Bq         2.7090650088    -0.3076731470     0.2694160574
Bq         2.7072194835    -0.2581818000     0.2762863272
Bq         2.7053739583    -0.2086904530     0.2831565969
Bq         2.7035284330    -0.1591991060     0.2900268667
Bq         2.7016829077    -0.1097077589     0.2968971365
Bq         2.6998373824    -0.0602164119     0.3037674063
Bq         2.6979918572    -0.0107250649     0.3106376761
Bq         2.6961463319     0.0387662821     0.3175079458
Bq         2.6943008066     0.0882576291     0.3243782156
Bq         2.6924552814     0.1377489761     0.3312484854
Bq         2.6906097561     0.1872403232     0.3381187552
Bq         2.6887642308     0.2367316702     0.3449890250
Bq         2.6869187056     0.2862230172     0.3518592947
Bq         2.6850731803     0.3357143642     0.3587295645
Bq         2.6832276550     0.3852057112     0.3655998343
Bq         2.6813821298     0.4346970583     0.3724701041
Bq         2.6795366045     0.4841884053     0.3793403738
Bq         2.6776910792     0.5336797523     0.3862106436
Bq         2.6758455540     0.5831710993     0.3930809134
Bq         2.6740000287     0.6326624463     0.3999511832
Bq         2.6721545034     0.6821537933     0.4068214530
Bq         2.6703089782     0.7316451404     0.4136917227
Bq         2.6684634529     0.7811364874     0.4205619925
Bq         2.6666179276     0.8306278344     0.4274322623
Bq         2.6647724024     0.8801191814     0.4343025321
Bq         2.6629268771     0.9296105284     0.4411728019
Bq         2.6610813518     0.9791018754     0.4480430716
Bq         2.6592358266     1.0285932225     0.4549133414
Bq         2.6573903013     1.0780845695     0.4617836112
Bq         2.6555447760     1.1275759165     0.4686538810
Bq         2.6536992508     1.1770672635     0.4755241508
Bq         2.6518537255     1.2265586105     0.4823944205
Bq         2.6500082002     1.2760499576     0.4892646903
Bq         2.6481626750     1.3255413046     0.4961349601
Bq         2.6463171497     1.3750326516     0.5030052299
Bq         2.6444716244     1.4245239986     0.5098754997
Bq         2.6426260992     1.4740153456     0.5167457694
Bq         2.6407805739     1.5235066926     0.5236160392
Bq         2.6389350486     1.5729980397     0.5304863090
Bq         2.6370895233     1.6224893867     0.5373565788
Bq         2.6352439981     1.6719807337     0.5442268486
Bq         2.6333984728     1.7214720807     0.5510971183
Bq         2.6315529475     1.7709634277     0.5579673881
Bq         2.6297074223     1.8204547748     0.5648376579
Bq         2.6278618970     1.8699461218     0.5717079277
Bq         2.6260163717     1.9194374688     0.5785781975
Bq         2.6241708465     1.9689288158     0.5854484672
Bq         2.6223253212     2.0184201628     0.5923187370
Bq         2.6204797959     2.0679115098     0.5991890068
Bq         2.6186342707     2.1174028569     0.6060592766
Bq         2.6167887454     2.1668942039     0.6129295463
Bq         2.6149432201     2.2163855509     0.6197998161
Bq         2.8477838719    -2.7327491509    -0.0542557709
Bq         2.8459383467    -2.6832578039    -0.0473855011
Bq         2.8440928214    -2.6337664569    -0.0405152314
Bq         2.8422472961    -2.5842751098    -0.0336449616
Bq         2.8404017709    -2.5347837628    -0.0267746918
Bq         2.8385562456    -2.4852924158    -0.0199044220
Bq         2.8367107203    -2.4358010688    -0.0130341522
Bq         2.8348651951    -2.3863097218    -0.0061638825
Bq         2.8330196698    -2.3368183748     0.0007063873
Bq         2.8311741445    -2.2873270277     0.0075766571
Bq         2.8293286193    -2.2378356807     0.0144469269
Bq         2.8274830940    -2.1883443337     0.0213171967
Bq         2.8256375687    -2.1388529867     0.0281874664
Bq         2.8237920434    -2.0893616397     0.0350577362
Bq         2.8219465182    -2.0398702926     0.0419280060
Bq         2.8201009929    -1.9903789456     0.0487982758
Bq         2.8182554676    -1.9408875986     0.0556685455
Bq         2.8164099424    -1.8913962516     0.0625388153
Bq         2.8145644171    -1.8419049046     0.0694090851
Bq         2.8127188918    -1.7924135576     0.0762793549
Bq         2.8108733666    -1.7429222105     0.0831496247
Bq         2.8090278413    -1.6934308635     0.0900198944
Bq         2.8071823160    -1.6439395165     0.0968901642
Bq         2.8053367908    -1.5944481695     0.1037604340
Bq         2.8034912655    -1.5449568225     0.1106307038
Bq         2.8016457402    -1.4954654754     0.1175009736
Bq         2.7998002150    -1.4459741284     0.1243712433
Bq         2.7979546897    -1.3964827814     0.1312415131
Bq         2.7961091644    -1.3469914344     0.1381117829
Bq         2.7942636392    -1.2975000874     0.1449820527
Bq         2.7924181139    -1.2480087404     0.1518523225
Bq         2.7905725886    -1.1985173933     0.1587225922
Bq         2.7887270634    -1.1490260463     0.1655928620
Bq         2.7868815381    -1.0995346993     0.1724631318
Bq         2.7850360128    -1.0500433523     0.1793334016
Bq         2.7831904876    -1.0005520053     0.1862036714
Bq         2.7813449623    -0.9510606583     0.1930739411
Bq         2.7794994370    -0.9015693112     0.1999442109
Bq         2.7776539118    -0.8520779642     0.2068144807
Bq         2.7758083865    -0.8025866172     0.2136847505

1
2
3
4
5
6
7
8
9
10
11
12
13
14
15
16
17
18
19
20
21
22
23
24
25
26
27
28
29
30
31
32
33
34
35
36
37
38
39
40
41
42
43
44
45
46
47
48
49
50
51
52
53
54
55
56
57
58
59
60
61
62
63
64
65
66
67
68
69
70
71
72
73
74
75
76
77
78
79
80
81
82
83
84
85
86
87
88
89
90
91
92
93
94
95
96
97
98
99
100
101
102
103
104
105
106
107
108
109
110
111
112
113
114
115
116
117
118
119
120
121
122
123
124
125
126
127
128
129
130
131
132
133
134
135
136
137
138
139
140
141
142
143
144
145
146
147
148
149
150
151
152
153
154
155
156
157
158
159
160
161
162
163
164
165
166
167
168
169
170
171
172
173
174
175
176
177
178
179
180
181
182
183
184
185
186
187
188
189
190
191
192
193
194
195
196
197
198
199
200
201
202
203
204
205
206
207
208
209
210
211
212
213
214
215
216
217
218
219
220
221
222
223
224
225
226
227
228
229
230
231
232
233
234
235
236

