%nproc=8
%mem=1000MB
# rb3lyp/6-311+g** NMR geom=connectivity

Title

0 1
C    -4.0500558   -0.5771862    0.8136712
H    -5.0263804   -1.0082727    1.0024760
C    -3.9381552    0.6617804    0.2400876
H    -4.8252424    1.2338890   -0.0111295
C    -2.6768410    1.2433246    0.0057578
C    -1.4974121    0.5051527    0.2848253
C    -1.6508332   -0.7338728    0.9404026
H    -0.7713646   -1.2730967    1.2633753
C    -2.8898548   -1.2624035    1.1994307
H    -2.9683706   -2.2124563    1.7152676
C    -2.5773185    2.5963696   -0.4192930
H    -3.4870728    3.1412239   -0.6474055
C    -1.3741895    3.2147896   -0.4364030
H    -1.2997315    4.2742019   -0.6578144
C    -0.1719488    2.4994090   -0.1734588
C    -0.2043917    1.1018437    0.0192689
C     1.0513491    3.2042560   -0.0676222
H     1.0427344    4.2819499   -0.1896997
C     2.1942091    2.5487446    0.2579577
H     3.1168527    3.0912848    0.4334727
C     2.2216473    1.1336562    0.2934990
C     1.0486931    0.3945528    0.0302412
C     3.4483363    0.4614633    0.5573939
H     4.3095794    1.0606054    0.8334846
C     3.5427346   -0.8855926    0.4749463
H     4.4731467   -1.3939704    0.7038822
C     2.4490052   -1.6474447   -0.0196319
C     1.2150704   -1.0057258   -0.3013573
C     0.2531113   -1.7434440   -1.0216591
H    -0.6541356   -1.2535051   -1.3462847
C     0.4494193   -3.0628597   -1.3413779
H    -0.3083162   -3.5944309   -1.9054060
C     1.6251726   -3.7207967   -0.9552541
H     1.7670048   -4.7687404   -1.1927019
C     2.6109872   -3.0144177   -0.3183050
H     3.5525612   -3.4902813   -0.0646367
Bq        -3.4328280674     0.5131075560     0.3172464048
Bq        -3.4327426013     0.5581332524     0.2955052143
Bq        -3.4326571351     0.6031589487     0.2737640238
Bq        -3.4325716690     0.6481846450     0.2520228333
Bq        -3.4324862029     0.6932103414     0.2302816428
Bq        -3.4324007367     0.7382360377     0.2085404523
Bq        -3.4323152706     0.7832617340     0.1867992618
Bq        -3.4322298045     0.8282874304     0.1650580712
Bq        -3.4321443383     0.8733131267     0.1433168807
Bq        -3.4320588722     0.9183388230     0.1215756902
Bq        -3.4319734060     0.9633645194     0.0998344997
Bq        -3.4318879399     1.0083902157     0.0780933092
Bq        -3.4318024738     1.0534159120     0.0563521187
Bq        -3.4317170076     1.0984416084     0.0346109281
Bq        -3.4316315415     1.1434673047     0.0128697376
Bq        -3.4315460754     1.1884930011    -0.0088714529
Bq        -3.4314606092     1.2335186974    -0.0306126434
Bq        -3.4313751431     1.2785443937    -0.0523538339
Bq        -3.4312896769     1.3235700901    -0.0740950244
Bq        -3.4312042108     1.3685957864    -0.0958362150
Bq        -3.4311187447     1.4136214827    -0.1175774055
Bq        -3.4310332785     1.4586471791    -0.1393185960
Bq        -3.4309478124     1.5036728754    -0.1610597865
Bq        -3.4308623463     1.5486985717    -0.1828009770
Bq        -3.4307768801     1.5937242681    -0.2045421675
Bq        -3.4306914140     1.6387499644    -0.2262833581
Bq        -3.4306059478     1.6837756607    -0.2480245486
Bq        -3.4305204817     1.7288013571    -0.2697657391
Bq        -3.4304350156     1.7738270534    -0.2915069296
Bq        -3.4303495494     1.8188527497    -0.3132481201
Bq        -3.4302640833     1.8638784461    -0.3349893106
Bq        -3.4301786172     1.9089041424    -0.3567305012
Bq        -3.4300931510     1.9539298388    -0.3784716917
Bq        -3.4300076849     1.9989555351    -0.4002128822
Bq        -3.4299222187     2.0439812314    -0.4219540727
Bq        -3.4298367526     2.0890069278    -0.4436952632
Bq        -3.4297512865     2.1340326241    -0.4654364537
Bq        -3.4296658203     2.1790583204    -0.4871776443
Bq        -3.4295803542     2.2240840168    -0.5089188348
Bq        -3.3881273543    -2.2784856168     1.6653967688
Bq        -3.3880418881    -2.2334599204     1.6436555783
Bq        -3.3879564220    -2.1884342241     1.6219143878
Bq        -3.3878709559    -2.1434085278     1.6001731973
Bq        -3.3877854897    -2.0983828314     1.5784320068
Bq        -3.3877000236    -2.0533571351     1.5566908162
Bq        -3.3876145574    -2.0083314388     1.5349496257
Bq        -3.3875290913    -1.9633057424     1.5132084352
Bq        -3.3874436252    -1.9182800461     1.4914672447
Bq        -3.3873581590    -1.8732543497     1.4697260542
Bq        -3.3872726929    -1.8282286534     1.4479848637
Bq        -3.3871872268    -1.7832029571     1.4262436731
Bq        -3.3871017606    -1.7381772607     1.4045024826
Bq        -3.3870162945    -1.6931515644     1.3827612921
Bq        -3.3869308283    -1.6481258681     1.3610201016
Bq        -3.3868453622    -1.6031001717     1.3392789111
Bq        -3.3867598961    -1.5580744754     1.3175377206
Bq        -3.3866744299    -1.5130487791     1.2957965300
Bq        -3.3865889638    -1.4680230827     1.2740553395
Bq        -3.3865034977    -1.4229973864     1.2523141490
Bq        -3.3864180315    -1.3779716901     1.2305729585
Bq        -3.3863325654    -1.3329459937     1.2088317680
Bq        -3.3862470992    -1.2879202974     1.1870905775
Bq        -3.3861616331    -1.2428946011     1.1653493870
Bq        -3.3860761670    -1.1978689047     1.1436081964
Bq        -3.3859907008    -1.1528432084     1.1218670059
Bq        -3.3859052347    -1.1078175120     1.1001258154
Bq        -3.3858197686    -1.0627918157     1.0783846249
Bq        -3.3857343024    -1.0177661194     1.0566434344
Bq        -3.3856488363    -0.9727404230     1.0349022439
Bq        -3.3855633701    -0.9277147267     1.0131610533
Bq        -3.3854779040    -0.8826890304     0.9914198628
Bq        -3.3853924379    -0.8376633340     0.9696786723
Bq        -3.3853069717    -0.7926376377     0.9479374818
Bq        -3.3852215056    -0.7476119414     0.9261962913
Bq        -3.3851360395    -0.7025862450     0.9044551008
Bq        -3.3850505733    -0.6575605487     0.8827139102
Bq        -3.3849651072    -0.6125348524     0.8609727197
Bq        -3.3848796410    -0.5675091560     0.8392315292
Bq        -3.3847941749    -0.5224834597     0.8174903387
Bq        -3.3847087088    -0.4774577634     0.7957491482
Bq        -3.3846232426    -0.4324320670     0.7740079577
Bq        -3.3845377765    -0.3874063707     0.7522667671
Bq        -3.3844523104    -0.3423806743     0.7305255766
Bq        -3.3843668442    -0.2973549780     0.7087843861
Bq        -3.3842813781    -0.2523292817     0.6870431956
Bq        -3.3841959119    -0.2073035853     0.6653020051
Bq        -3.3841104458    -0.1622778890     0.6435608146
Bq        -3.3840249797    -0.1172521927     0.6218196240
Bq        -3.3839395135    -0.0722264963     0.6000784335
Bq        -3.3838540474    -0.0272008000     0.5783372430
Bq        -3.3837685813     0.0178248963     0.5565960525
Bq        -3.3836831151     0.0628505927     0.5348548620
Bq        -3.3835976490     0.1078762890     0.5131136715
Bq        -3.3835121828     0.1529019853     0.4913724809
Bq        -3.3834267167     0.1979276817     0.4696312904
Bq        -3.3833412506     0.2429533780     0.4478900999
Bq        -3.3832557844     0.2879790743     0.4261489094
Bq        -3.3831703183     0.3330047707     0.4044077189
Bq        -3.3830848522     0.3780304670     0.3826665284
Bq        -3.3829993860     0.4230561634     0.3609253379
Bq        -3.3829139199     0.4680818597     0.3391841473
Bq        -3.3828284537     0.5131075560     0.3174429568
Bq        -3.3827429876     0.5581332524     0.2957017663
Bq        -3.3826575215     0.6031589487     0.2739605758
Bq        -3.3825720553     0.6481846450     0.2522193853
Bq        -3.3824865892     0.6932103414     0.2304781948
Bq        -3.3824011231     0.7382360377     0.2087370042
Bq        -3.3823156569     0.7832617340     0.1869958137
Bq        -3.3822301908     0.8282874304     0.1652546232
Bq        -3.3821447246     0.8733131267     0.1435134327
Bq        -3.3820592585     0.9183388230     0.1217722422
Bq        -3.3819737924     0.9633645194     0.1000310517
Bq        -3.3818883262     1.0083902157     0.0782898611
Bq        -3.3818028601     1.0534159120     0.0565486706
Bq        -3.3817173940     1.0984416084     0.0348074801
Bq        -3.3816319278     1.1434673047     0.0130662896
Bq        -3.3815464617     1.1884930011    -0.0086749009
Bq        -3.3814609955     1.2335186974    -0.0304160914
Bq        -3.3813755294     1.2785443937    -0.0521572820
Bq        -3.3812900633     1.3235700901    -0.0738984725
Bq        -3.3812045971     1.3685957864    -0.0956396630
Bq        -3.3811191310     1.4136214827    -0.1173808535
Bq        -3.3810336649     1.4586471791    -0.1391220440
Bq        -3.3809481987     1.5036728754    -0.1608632345
Bq        -3.3808627326     1.5486985717    -0.1826044251
Bq        -3.3807772664     1.5937242681    -0.2043456156
Bq        -3.3806918003     1.6387499644    -0.2260868061
Bq        -3.3806063342     1.6837756607    -0.2478279966
Bq        -3.3805208680     1.7288013571    -0.2695691871
Bq        -3.3804354019     1.7738270534    -0.2913103776
Bq        -3.3803499358     1.8188527497    -0.3130515682
Bq        -3.3802644696     1.8638784461    -0.3347927587
Bq        -3.3801790035     1.9089041424    -0.3565339492
Bq        -3.3800935374     1.9539298388    -0.3782751397
Bq        -3.3800080712     1.9989555351    -0.4000163302
Bq        -3.3799226051     2.0439812314    -0.4217575207
Bq        -3.3798371389     2.0890069278    -0.4434987112
Bq        -3.3797516728     2.1340326241    -0.4652399018
Bq        -3.3796662067     2.1790583204    -0.4869810923
Bq        -3.3795807405     2.2240840168    -0.5087222828
Bq        -3.3381277406    -2.2784856168     1.6655933208
Bq        -3.3380422745    -2.2334599204     1.6438521303
Bq        -3.3379568083    -2.1884342241     1.6221109398
Bq        -3.3378713422    -2.1434085278     1.6003697492
Bq        -3.3377858760    -2.0983828314     1.5786285587
Bq        -3.3377004099    -2.0533571351     1.5568873682
Bq        -3.3376149438    -2.0083314388     1.5351461777
Bq        -3.3375294776    -1.9633057424     1.5134049872
Bq        -3.3374440115    -1.9182800461     1.4916637967
Bq        -3.3373585454    -1.8732543497     1.4699226062
Bq        -3.3372730792    -1.8282286534     1.4481814156
Bq        -3.3371876131    -1.7832029571     1.4264402251
Bq        -3.3371021469    -1.7381772607     1.4046990346
Bq        -3.3370166808    -1.6931515644     1.3829578441
Bq        -3.3369312147    -1.6481258681     1.3612166536
Bq        -3.3368457485    -1.6031001717     1.3394754631
Bq        -3.3367602824    -1.5580744754     1.3177342725
Bq        -3.3366748163    -1.5130487791     1.2959930820
Bq        -3.3365893501    -1.4680230827     1.2742518915
Bq        -3.3365038840    -1.4229973864     1.2525107010
Bq        -3.3364184178    -1.3779716901     1.2307695105
Bq        -3.3363329517    -1.3329459937     1.2090283200
Bq        -3.3362474856    -1.2879202974     1.1872871294
Bq        -3.3361620194    -1.2428946011     1.1655459389
Bq        -3.3360765533    -1.1978689047     1.1438047484
Bq        -3.3359910872    -1.1528432084     1.1220635579
Bq        -3.3359056210    -1.1078175120     1.1003223674
Bq        -3.3358201549    -1.0627918157     1.0785811769
Bq        -3.3357346887    -1.0177661194     1.0568399863
Bq        -3.3356492226    -0.9727404230     1.0350987958
Bq        -3.3355637565    -0.9277147267     1.0133576053
Bq        -3.3354782903    -0.8826890304     0.9916164148
Bq        -3.3353928242    -0.8376633340     0.9698752243
Bq        -3.3353073581    -0.7926376377     0.9481340338
Bq        -3.3352218919    -0.7476119414     0.9263928432
Bq        -3.3351364258    -0.7025862450     0.9046516527
Bq        -3.3350509596    -0.6575605487     0.8829104622
Bq        -3.3349654935    -0.6125348524     0.8611692717
Bq        -3.3348800274    -0.5675091560     0.8394280812
Bq        -3.3347945612    -0.5224834597     0.8176868907
Bq        -3.3347090951    -0.4774577634     0.7959457001
Bq        -3.3346236290    -0.4324320670     0.7742045096
Bq        -3.3345381628    -0.3874063707     0.7524633191
Bq        -3.3344526967    -0.3423806743     0.7307221286
Bq        -3.3343672305    -0.2973549780     0.7089809381
Bq        -3.3342817644    -0.2523292817     0.6872397476
Bq        -3.3341962983    -0.2073035853     0.6654985570
Bq        -3.3341108321    -0.1622778890     0.6437573665
Bq        -3.3340253660    -0.1172521927     0.6220161760
Bq        -3.3339398999    -0.0722264963     0.6002749855
Bq        -3.3338544337    -0.0272008000     0.5785337950
Bq        -3.3337689676     0.0178248963     0.5567926045
Bq        -3.3336835014     0.0628505927     0.5350514140
Bq        -3.3335980353     0.1078762890     0.5133102234
Bq        -3.3335125692     0.1529019853     0.4915690329
Bq        -3.3334271030     0.1979276817     0.4698278424
Bq        -3.3333416369     0.2429533780     0.4480866519
Bq        -3.3332561708     0.2879790743     0.4263454614
Bq        -3.3331707046     0.3330047707     0.4046042709
Bq        -3.3330852385     0.3780304670     0.3828630803

1
2
3
4
5
6
7
8
9
10
11
12
13
14
15
16
17
18
19
20
21
22
23
24
25
26
27
28
29
30
31
32
33
34
35
36
37
38
39
40
41
42
43
44
45
46
47
48
49
50
51
52
53
54
55
56
57
58
59
60
61
62
63
64
65
66
67
68
69
70
71
72
73
74
75
76
77
78
79
80
81
82
83
84
85
86
87
88
89
90
91
92
93
94
95
96
97
98
99
100
101
102
103
104
105
106
107
108
109
110
111
112
113
114
115
116
117
118
119
120
121
122
123
124
125
126
127
128
129
130
131
132
133
134
135
136
137
138
139
140
141
142
143
144
145
146
147
148
149
150
151
152
153
154
155
156
157
158
159
160
161
162
163
164
165
166
167
168
169
170
171
172
173
174
175
176
177
178
179
180
181
182
183
184
185
186
187
188
189
190
191
192
193
194
195
196
197
198
199
200
201
202
203
204
205
206
207
208
209
210
211
212
213
214
215
216
217
218
219
220
221
222
223
224
225
226
227
228
229
230
231
232
233
234
235
236

