%nproc=8
%mem=1000MB
# rb3lyp/6-311+g** NMR geom=connectivity

Title

0 1
C    -4.0500558   -0.5771862    0.8136712
H    -5.0263804   -1.0082727    1.0024760
C    -3.9381552    0.6617804    0.2400876
H    -4.8252424    1.2338890   -0.0111295
C    -2.6768410    1.2433246    0.0057578
C    -1.4974121    0.5051527    0.2848253
C    -1.6508332   -0.7338728    0.9404026
H    -0.7713646   -1.2730967    1.2633753
C    -2.8898548   -1.2624035    1.1994307
H    -2.9683706   -2.2124563    1.7152676
C    -2.5773185    2.5963696   -0.4192930
H    -3.4870728    3.1412239   -0.6474055
C    -1.3741895    3.2147896   -0.4364030
H    -1.2997315    4.2742019   -0.6578144
C    -0.1719488    2.4994090   -0.1734588
C    -0.2043917    1.1018437    0.0192689
C     1.0513491    3.2042560   -0.0676222
H     1.0427344    4.2819499   -0.1896997
C     2.1942091    2.5487446    0.2579577
H     3.1168527    3.0912848    0.4334727
C     2.2216473    1.1336562    0.2934990
C     1.0486931    0.3945528    0.0302412
C     3.4483363    0.4614633    0.5573939
H     4.3095794    1.0606054    0.8334846
C     3.5427346   -0.8855926    0.4749463
H     4.4731467   -1.3939704    0.7038822
C     2.4490052   -1.6474447   -0.0196319
C     1.2150704   -1.0057258   -0.3013573
C     0.2531113   -1.7434440   -1.0216591
H    -0.6541356   -1.2535051   -1.3462847
C     0.4494193   -3.0628597   -1.3413779
H    -0.3083162   -3.5944309   -1.9054060
C     1.6251726   -3.7207967   -0.9552541
H     1.7670048   -4.7687404   -1.1927019
C     2.6109872   -3.0144177   -0.3183050
H     3.5525612   -3.4902813   -0.0646367
Bq        -5.0300807885     1.9539298388    -0.3847613547
Bq        -5.0299953224     1.9989555351    -0.4065025453
Bq        -5.0299098562     2.0439812314    -0.4282437358
Bq        -5.0298243901     2.0890069278    -0.4499849263
Bq        -5.0297389240     2.1340326241    -0.4717261168
Bq        -5.0296534578     2.1790583204    -0.4934673073
Bq        -5.0295679917     2.2240840168    -0.5152084978
Bq        -4.9881149918    -2.2784856168     1.6591071057
Bq        -4.9880295256    -2.2334599204     1.6373659152
Bq        -4.9879440595    -2.1884342241     1.6156247247
Bq        -4.9878585933    -2.1434085278     1.5938835342
Bq        -4.9877731272    -2.0983828314     1.5721423437
Bq        -4.9876876611    -2.0533571351     1.5504011532
Bq        -4.9876021949    -2.0083314388     1.5286599627
Bq        -4.9875167288    -1.9633057424     1.5069187721
Bq        -4.9874312627    -1.9182800461     1.4851775816
Bq        -4.9873457965    -1.8732543497     1.4634363911
Bq        -4.9872603304    -1.8282286534     1.4416952006
Bq        -4.9871748642    -1.7832029571     1.4199540101
Bq        -4.9870893981    -1.7381772607     1.3982128196
Bq        -4.9870039320    -1.6931515644     1.3764716290
Bq        -4.9869184658    -1.6481258681     1.3547304385
Bq        -4.9868329997    -1.6031001717     1.3329892480
Bq        -4.9867475336    -1.5580744754     1.3112480575
Bq        -4.9866620674    -1.5130487791     1.2895068670
Bq        -4.9865766013    -1.4680230827     1.2677656765
Bq        -4.9864911351    -1.4229973864     1.2460244859
Bq        -4.9864056690    -1.3779716901     1.2242832954
Bq        -4.9863202029    -1.3329459937     1.2025421049
Bq        -4.9862347367    -1.2879202974     1.1808009144
Bq        -4.9861492706    -1.2428946011     1.1590597239
Bq        -4.9860638045    -1.1978689047     1.1373185334
Bq        -4.9859783383    -1.1528432084     1.1155773428
Bq        -4.9858928722    -1.1078175120     1.0938361523
Bq        -4.9858074060    -1.0627918157     1.0720949618
Bq        -4.9857219399    -1.0177661194     1.0503537713
Bq        -4.9856364738    -0.9727404230     1.0286125808
Bq        -4.9855510076    -0.9277147267     1.0068713903
Bq        -4.9854655415    -0.8826890304     0.9851301997
Bq        -4.9853800754    -0.8376633340     0.9633890092
Bq        -4.9852946092    -0.7926376377     0.9416478187
Bq        -4.9852091431    -0.7476119414     0.9199066282
Bq        -4.9851236770    -0.7025862450     0.8981654377
Bq        -4.9850382108    -0.6575605487     0.8764242472
Bq        -4.9849527447    -0.6125348524     0.8546830566
Bq        -4.9848672785    -0.5675091560     0.8329418661
Bq        -4.9847818124    -0.5224834597     0.8112006756
Bq        -4.9846963463    -0.4774577634     0.7894594851
Bq        -4.9846108801    -0.4324320670     0.7677182946
Bq        -4.9845254140    -0.3874063707     0.7459771041
Bq        -4.9844399479    -0.3423806743     0.7242359136
Bq        -4.9843544817    -0.2973549780     0.7024947230
Bq        -4.9842690156    -0.2523292817     0.6807535325
Bq        -4.9841835494    -0.2073035853     0.6590123420
Bq        -4.9840980833    -0.1622778890     0.6372711515
Bq        -4.9840126172    -0.1172521927     0.6155299610
Bq        -4.9839271510    -0.0722264963     0.5937887705
Bq        -4.9838416849    -0.0272008000     0.5720475799
Bq        -4.9837562188     0.0178248963     0.5503063894
Bq        -4.9836707526     0.0628505927     0.5285651989
Bq        -4.9835852865     0.1078762890     0.5068240084
Bq        -4.9834998203     0.1529019853     0.4850828179
Bq        -4.9834143542     0.1979276817     0.4633416274
Bq        -4.9833288881     0.2429533780     0.4416004368
Bq        -4.9832434219     0.2879790743     0.4198592463
Bq        -4.9831579558     0.3330047707     0.3981180558
Bq        -4.9830724897     0.3780304670     0.3763768653
Bq        -4.9829870235     0.4230561634     0.3546356748
Bq        -4.9829015574     0.4680818597     0.3328944843
Bq        -4.9828160912     0.5131075560     0.3111532937
Bq        -4.9827306251     0.5581332524     0.2894121032
Bq        -4.9826451590     0.6031589487     0.2676709127
Bq        -4.9825596928     0.6481846450     0.2459297222
Bq        -4.9824742267     0.6932103414     0.2241885317
Bq        -4.9823887606     0.7382360377     0.2024473412
Bq        -4.9823032944     0.7832617340     0.1807061506
Bq        -4.9822178283     0.8282874304     0.1589649601
Bq        -4.9821323621     0.8733131267     0.1372237696
Bq        -4.9820468960     0.9183388230     0.1154825791
Bq        -4.9819614299     0.9633645194     0.0937413886
Bq        -4.9818759637     1.0083902157     0.0720001981
Bq        -4.9817904976     1.0534159120     0.0502590075
Bq        -4.9817050315     1.0984416084     0.0285178170
Bq        -4.9816195653     1.1434673047     0.0067766265
Bq        -4.9815340992     1.1884930011    -0.0149645640
Bq        -4.9814486330     1.2335186974    -0.0367057545
Bq        -4.9813631669     1.2785443937    -0.0584469450
Bq        -4.9812777008     1.3235700901    -0.0801881355
Bq        -4.9811922346     1.3685957864    -0.1019293261
Bq        -4.9811067685     1.4136214827    -0.1236705166
Bq        -4.9810213024     1.4586471791    -0.1454117071
Bq        -4.9809358362     1.5036728754    -0.1671528976
Bq        -4.9808503701     1.5486985717    -0.1888940881
Bq        -4.9807649039     1.5937242681    -0.2106352786
Bq        -4.9806794378     1.6387499644    -0.2323764692
Bq        -4.9805939717     1.6837756607    -0.2541176597
Bq        -4.9805085055     1.7288013571    -0.2758588502
Bq        -4.9804230394     1.7738270534    -0.2976000407
Bq        -4.9803375733     1.8188527497    -0.3193412312
Bq        -4.9802521071     1.8638784461    -0.3410824217
Bq        -4.9801666410     1.9089041424    -0.3628236123
Bq        -4.9800811748     1.9539298388    -0.3845648028
Bq        -4.9799957087     1.9989555351    -0.4063059933
Bq        -4.9799102426     2.0439812314    -0.4280471838
Bq        -4.9798247764     2.0890069278    -0.4497883743
Bq        -4.9797393103     2.1340326241    -0.4715295648
Bq        -4.9796538442     2.1790583204    -0.4932707554
Bq        -4.9795683780     2.2240840168    -0.5150119459
Bq        -4.9381153781    -2.2784856168     1.6593036577
Bq        -4.9380299119    -2.2334599204     1.6375624672
Bq        -4.9379444458    -2.1884342241     1.6158212767
Bq        -4.9378589797    -2.1434085278     1.5940800862
Bq        -4.9377735135    -2.0983828314     1.5723388957
Bq        -4.9376880474    -2.0533571351     1.5505977051
Bq        -4.9376025813    -2.0083314388     1.5288565146
Bq        -4.9375171151    -1.9633057424     1.5071153241
Bq        -4.9374316490    -1.9182800461     1.4853741336
Bq        -4.9373461828    -1.8732543497     1.4636329431
Bq        -4.9372607167    -1.8282286534     1.4418917526
Bq        -4.9371752506    -1.7832029571     1.4201505620
Bq        -4.9370897844    -1.7381772607     1.3984093715
Bq        -4.9370043183    -1.6931515644     1.3766681810
Bq        -4.9369188522    -1.6481258681     1.3549269905
Bq        -4.9368333860    -1.6031001717     1.3331858000
Bq        -4.9367479199    -1.5580744754     1.3114446095
Bq        -4.9366624538    -1.5130487791     1.2897034189
Bq        -4.9365769876    -1.4680230827     1.2679622284
Bq        -4.9364915215    -1.4229973864     1.2462210379
Bq        -4.9364060553    -1.3779716901     1.2244798474
Bq        -4.9363205892    -1.3329459937     1.2027386569
Bq        -4.9362351231    -1.2879202974     1.1809974664
Bq        -4.9361496569    -1.2428946011     1.1592562758
Bq        -4.9360641908    -1.1978689047     1.1375150853
Bq        -4.9359787247    -1.1528432084     1.1157738948
Bq        -4.9358932585    -1.1078175120     1.0940327043
Bq        -4.9358077924    -1.0627918157     1.0722915138
Bq        -4.9357223262    -1.0177661194     1.0505503233
Bq        -4.9356368601    -0.9727404230     1.0288091328
Bq        -4.9355513940    -0.9277147267     1.0070679422
Bq        -4.9354659278    -0.8826890304     0.9853267517
Bq        -4.9353804617    -0.8376633340     0.9635855612
Bq        -4.9352949956    -0.7926376377     0.9418443707
Bq        -4.9352095294    -0.7476119414     0.9201031802
Bq        -4.9351240633    -0.7025862450     0.8983619897
Bq        -4.9350385971    -0.6575605487     0.8766207991
Bq        -4.9349531310    -0.6125348524     0.8548796086
Bq        -4.9348676649    -0.5675091560     0.8331384181
Bq        -4.9347821987    -0.5224834597     0.8113972276
Bq        -4.9346967326    -0.4774577634     0.7896560371
Bq        -4.9346112665    -0.4324320670     0.7679148466
Bq        -4.9345258003    -0.3874063707     0.7461736560
Bq        -4.9344403342    -0.3423806743     0.7244324655
Bq        -4.9343548680    -0.2973549780     0.7026912750
Bq        -4.9342694019    -0.2523292817     0.6809500845
Bq        -4.9341839358    -0.2073035853     0.6592088940
Bq        -4.9340984696    -0.1622778890     0.6374677035
Bq        -4.9340130035    -0.1172521927     0.6157265129
Bq        -4.9339275374    -0.0722264963     0.5939853224
Bq        -4.9338420712    -0.0272008000     0.5722441319
Bq        -4.9337566051     0.0178248963     0.5505029414
Bq        -4.9336711389     0.0628505927     0.5287617509
Bq        -4.9335856728     0.1078762890     0.5070205604
Bq        -4.9335002067     0.1529019853     0.4852793698
Bq        -4.9334147405     0.1979276817     0.4635381793
Bq        -4.9333292744     0.2429533780     0.4417969888
Bq        -4.9332438083     0.2879790743     0.4200557983
Bq        -4.9331583421     0.3330047707     0.3983146078
Bq        -4.9330728760     0.3780304670     0.3765734173
Bq        -4.9329874098     0.4230561634     0.3548322267
Bq        -4.9329019437     0.4680818597     0.3330910362
Bq        -4.9328164776     0.5131075560     0.3113498457
Bq        -4.9327310114     0.5581332524     0.2896086552
Bq        -4.9326455453     0.6031589487     0.2678674647
Bq        -4.9325600792     0.6481846450     0.2461262742
Bq        -4.9324746130     0.6932103414     0.2243850836
Bq        -4.9323891469     0.7382360377     0.2026438931
Bq        -4.9323036807     0.7832617340     0.1809027026
Bq        -4.9322182146     0.8282874304     0.1591615121
Bq        -4.9321327485     0.8733131267     0.1374203216
Bq        -4.9320472823     0.9183388230     0.1156791311
Bq        -4.9319618162     0.9633645194     0.0939379406
Bq        -4.9318763501     1.0083902157     0.0721967500
Bq        -4.9317908839     1.0534159120     0.0504555595
Bq        -4.9317054178     1.0984416084     0.0287143690
Bq        -4.9316199516     1.1434673047     0.0069731785
Bq        -4.9315344855     1.1884930011    -0.0147680120
Bq        -4.9314490194     1.2335186974    -0.0365092025
Bq        -4.9313635532     1.2785443937    -0.0582503931
Bq        -4.9312780871     1.3235700901    -0.0799915836
Bq        -4.9311926210     1.3685957864    -0.1017327741
Bq        -4.9311071548     1.4136214827    -0.1234739646
Bq        -4.9310216887     1.4586471791    -0.1452151551
Bq        -4.9309362225     1.5036728754    -0.1669563456
Bq        -4.9308507564     1.5486985717    -0.1886975362
Bq        -4.9307652903     1.5937242681    -0.2104387267
Bq        -4.9306798241     1.6387499644    -0.2321799172
Bq        -4.9305943580     1.6837756607    -0.2539211077
Bq        -4.9305088919     1.7288013571    -0.2756622982
Bq        -4.9304234257     1.7738270534    -0.2974034887
Bq        -4.9303379596     1.8188527497    -0.3191446793

1
2
3
4
5
6
7
8
9
10
11
12
13
14
15
16
17
18
19
20
21
22
23
24
25
26
27
28
29
30
31
32
33
34
35
36
37
38
39
40
41
42
43
44
45
46
47
48
49
50
51
52
53
54
55
56
57
58
59
60
61
62
63
64
65
66
67
68
69
70
71
72
73
74
75
76
77
78
79
80
81
82
83
84
85
86
87
88
89
90
91
92
93
94
95
96
97
98
99
100
101
102
103
104
105
106
107
108
109
110
111
112
113
114
115
116
117
118
119
120
121
122
123
124
125
126
127
128
129
130
131
132
133
134
135
136
137
138
139
140
141
142
143
144
145
146
147
148
149
150
151
152
153
154
155
156
157
158
159
160
161
162
163
164
165
166
167
168
169
170
171
172
173
174
175
176
177
178
179
180
181
182
183
184
185
186
187
188
189
190
191
192
193
194
195
196
197
198
199
200
201
202
203
204
205
206
207
208
209
210
211
212
213
214
215
216
217
218
219
220
221
222
223
224
225
226
227
228
229
230
231
232
233
234
235
236

