%nproc=8
%mem=1000MB
# rb3lyp/6-311+g** NMR geom=connectivity

Title

0 1
C    -4.0500558   -0.5771862    0.8136712
H    -5.0263804   -1.0082727    1.0024760
C    -3.9381552    0.6617804    0.2400876
H    -4.8252424    1.2338890   -0.0111295
C    -2.6768410    1.2433246    0.0057578
C    -1.4974121    0.5051527    0.2848253
C    -1.6508332   -0.7338728    0.9404026
H    -0.7713646   -1.2730967    1.2633753
C    -2.8898548   -1.2624035    1.1994307
H    -2.9683706   -2.2124563    1.7152676
C    -2.5773185    2.5963696   -0.4192930
H    -3.4870728    3.1412239   -0.6474055
C    -1.3741895    3.2147896   -0.4364030
H    -1.2997315    4.2742019   -0.6578144
C    -0.1719488    2.4994090   -0.1734588
C    -0.2043917    1.1018437    0.0192689
C     1.0513491    3.2042560   -0.0676222
H     1.0427344    4.2819499   -0.1896997
C     2.1942091    2.5487446    0.2579577
H     3.1168527    3.0912848    0.4334727
C     2.2216473    1.1336562    0.2934990
C     1.0486931    0.3945528    0.0302412
C     3.4483363    0.4614633    0.5573939
H     4.3095794    1.0606054    0.8334846
C     3.5427346   -0.8855926    0.4749463
H     4.4731467   -1.3939704    0.7038822
C     2.4490052   -1.6474447   -0.0196319
C     1.2150704   -1.0057258   -0.3013573
C     0.2531113   -1.7434440   -1.0216591
H    -0.6541356   -1.2535051   -1.3462847
C     0.4494193   -3.0628597   -1.3413779
H    -0.3083162   -3.5944309   -1.9054060
C     1.6251726   -3.7207967   -0.9552541
H     1.7670048   -4.7687404   -1.1927019
C     2.6109872   -3.0144177   -0.3183050
H     3.5525612   -3.4902813   -0.0646367
Bq        -3.1333431822     0.2429533780     0.4488728598
Bq        -3.1332577161     0.2879790743     0.4271316693
Bq        -3.1331722499     0.3330047707     0.4053904787
Bq        -3.1330867838     0.3780304670     0.3836492882
Bq        -3.1330013177     0.4230561634     0.3619080977
Bq        -3.1329158515     0.4680818597     0.3401669072
Bq        -3.1328303854     0.5131075560     0.3184257167
Bq        -3.1327449192     0.5581332524     0.2966845262
Bq        -3.1326594531     0.6031589487     0.2749433356
Bq        -3.1325739870     0.6481846450     0.2532021451
Bq        -3.1324885208     0.6932103414     0.2314609546
Bq        -3.1324030547     0.7382360377     0.2097197641
Bq        -3.1323175886     0.7832617340     0.1879785736
Bq        -3.1322321224     0.8282874304     0.1662373831
Bq        -3.1321466563     0.8733131267     0.1444961925
Bq        -3.1320611902     0.9183388230     0.1227550020
Bq        -3.1319757240     0.9633645194     0.1010138115
Bq        -3.1318902579     1.0083902157     0.0792726210
Bq        -3.1318047917     1.0534159120     0.0575314305
Bq        -3.1317193256     1.0984416084     0.0357902400
Bq        -3.1316338595     1.1434673047     0.0140490494
Bq        -3.1315483933     1.1884930011    -0.0076921411
Bq        -3.1314629272     1.2335186974    -0.0294333316
Bq        -3.1313774611     1.2785443937    -0.0511745221
Bq        -3.1312919949     1.3235700901    -0.0729157126
Bq        -3.1312065288     1.3685957864    -0.0946569031
Bq        -3.1311210626     1.4136214827    -0.1163980937
Bq        -3.1310355965     1.4586471791    -0.1381392842
Bq        -3.1309501304     1.5036728754    -0.1598804747
Bq        -3.1308646642     1.5486985717    -0.1816216652
Bq        -3.1307791981     1.5937242681    -0.2033628557
Bq        -3.1306937320     1.6387499644    -0.2251040462
Bq        -3.1306082658     1.6837756607    -0.2468452367
Bq        -3.1305227997     1.7288013571    -0.2685864273
Bq        -3.1304373335     1.7738270534    -0.2903276178
Bq        -3.1303518674     1.8188527497    -0.3120688083
Bq        -3.1302664013     1.8638784461    -0.3338099988
Bq        -3.1301809351     1.9089041424    -0.3555511893
Bq        -3.1300954690     1.9539298388    -0.3772923798
Bq        -3.1300100029     1.9989555351    -0.3990335704
Bq        -3.1299245367     2.0439812314    -0.4207747609
Bq        -3.1298390706     2.0890069278    -0.4425159514
Bq        -3.1297536044     2.1340326241    -0.4642571419
Bq        -3.1296681383     2.1790583204    -0.4859983324
Bq        -3.1295826722     2.2240840168    -0.5077395229
Bq        -3.0881296722    -2.2784856168     1.6665760807
Bq        -3.0880442061    -2.2334599204     1.6448348901
Bq        -3.0879587400    -2.1884342241     1.6230936996
Bq        -3.0878732738    -2.1434085278     1.6013525091
Bq        -3.0877878077    -2.0983828314     1.5796113186
Bq        -3.0877023415    -2.0533571351     1.5578701281
Bq        -3.0876168754    -2.0083314388     1.5361289376
Bq        -3.0875314093    -1.9633057424     1.5143877470
Bq        -3.0874459431    -1.9182800461     1.4926465565
Bq        -3.0873604770    -1.8732543497     1.4709053660
Bq        -3.0872750109    -1.8282286534     1.4491641755
Bq        -3.0871895447    -1.7832029571     1.4274229850
Bq        -3.0871040786    -1.7381772607     1.4056817945
Bq        -3.0870186124    -1.6931515644     1.3839406039
Bq        -3.0869331463    -1.6481258681     1.3621994134
Bq        -3.0868476802    -1.6031001717     1.3404582229
Bq        -3.0867622140    -1.5580744754     1.3187170324
Bq        -3.0866767479    -1.5130487791     1.2969758419
Bq        -3.0865912818    -1.4680230827     1.2752346514
Bq        -3.0865058156    -1.4229973864     1.2534934608
Bq        -3.0864203495    -1.3779716901     1.2317522703
Bq        -3.0863348833    -1.3329459937     1.2100110798
Bq        -3.0862494172    -1.2879202974     1.1882698893
Bq        -3.0861639511    -1.2428946011     1.1665286988
Bq        -3.0860784849    -1.1978689047     1.1447875083
Bq        -3.0859930188    -1.1528432084     1.1230463177
Bq        -3.0859075527    -1.1078175120     1.1013051272
Bq        -3.0858220865    -1.0627918157     1.0795639367
Bq        -3.0857366204    -1.0177661194     1.0578227462
Bq        -3.0856511542    -0.9727404230     1.0360815557
Bq        -3.0855656881    -0.9277147267     1.0143403652
Bq        -3.0854802220    -0.8826890304     0.9925991746
Bq        -3.0853947558    -0.8376633340     0.9708579841
Bq        -3.0853092897    -0.7926376377     0.9491167936
Bq        -3.0852238236    -0.7476119414     0.9273756031
Bq        -3.0851383574    -0.7025862450     0.9056344126
Bq        -3.0850528913    -0.6575605487     0.8838932221
Bq        -3.0849674251    -0.6125348524     0.8621520316
Bq        -3.0848819590    -0.5675091560     0.8404108410
Bq        -3.0847964929    -0.5224834597     0.8186696505
Bq        -3.0847110267    -0.4774577634     0.7969284600
Bq        -3.0846255606    -0.4324320670     0.7751872695
Bq        -3.0845400945    -0.3874063707     0.7534460790
Bq        -3.0844546283    -0.3423806743     0.7317048885
Bq        -3.0843691622    -0.2973549780     0.7099636979
Bq        -3.0842836961    -0.2523292817     0.6882225074
Bq        -3.0841982299    -0.2073035853     0.6664813169
Bq        -3.0841127638    -0.1622778890     0.6447401264
Bq        -3.0840272976    -0.1172521927     0.6229989359
Bq        -3.0839418315    -0.0722264963     0.6012577454
Bq        -3.0838563654    -0.0272008000     0.5795165548
Bq        -3.0837708992     0.0178248963     0.5577753643
Bq        -3.0836854331     0.0628505927     0.5360341738
Bq        -3.0835999670     0.1078762890     0.5142929833
Bq        -3.0835145008     0.1529019853     0.4925517928
Bq        -3.0834290347     0.1979276817     0.4708106023
Bq        -3.0833435685     0.2429533780     0.4490694117
Bq        -3.0832581024     0.2879790743     0.4273282212
Bq        -3.0831726363     0.3330047707     0.4055870307
Bq        -3.0830871701     0.3780304670     0.3838458402
Bq        -3.0830017040     0.4230561634     0.3621046497
Bq        -3.0829162379     0.4680818597     0.3403634592
Bq        -3.0828307717     0.5131075560     0.3186222686
Bq        -3.0827453056     0.5581332524     0.2968810781
Bq        -3.0826598394     0.6031589487     0.2751398876
Bq        -3.0825743733     0.6481846450     0.2533986971
Bq        -3.0824889072     0.6932103414     0.2316575066
Bq        -3.0824034410     0.7382360377     0.2099163161
Bq        -3.0823179749     0.7832617340     0.1881751255
Bq        -3.0822325088     0.8282874304     0.1664339350
Bq        -3.0821470426     0.8733131267     0.1446927445
Bq        -3.0820615765     0.9183388230     0.1229515540
Bq        -3.0819761103     0.9633645194     0.1012103635
Bq        -3.0818906442     1.0083902157     0.0794691730
Bq        -3.0818051781     1.0534159120     0.0577279825
Bq        -3.0817197119     1.0984416084     0.0359867919
Bq        -3.0816342458     1.1434673047     0.0142456014
Bq        -3.0815487797     1.1884930011    -0.0074955891
Bq        -3.0814633135     1.2335186974    -0.0292367796
Bq        -3.0813778474     1.2785443937    -0.0509779701
Bq        -3.0812923812     1.3235700901    -0.0727191606
Bq        -3.0812069151     1.3685957864    -0.0944603512
Bq        -3.0811214490     1.4136214827    -0.1162015417
Bq        -3.0810359828     1.4586471791    -0.1379427322
Bq        -3.0809505167     1.5036728754    -0.1596839227
Bq        -3.0808650506     1.5486985717    -0.1814251132
Bq        -3.0807795844     1.5937242681    -0.2031663037
Bq        -3.0806941183     1.6387499644    -0.2249074943
Bq        -3.0806086521     1.6837756607    -0.2466486848
Bq        -3.0805231860     1.7288013571    -0.2683898753
Bq        -3.0804377199     1.7738270534    -0.2901310658
Bq        -3.0803522537     1.8188527497    -0.3118722563
Bq        -3.0802667876     1.8638784461    -0.3336134468
Bq        -3.0801813215     1.9089041424    -0.3553546374
Bq        -3.0800958553     1.9539298388    -0.3770958279
Bq        -3.0800103892     1.9989555351    -0.3988370184
Bq        -3.0799249230     2.0439812314    -0.4205782089
Bq        -3.0798394569     2.0890069278    -0.4423193994
Bq        -3.0797539908     2.1340326241    -0.4640605899
Bq        -3.0796685246     2.1790583204    -0.4858017805
Bq        -3.0795830585     2.2240840168    -0.5075429710
Bq        -3.0381300586    -2.2784856168     1.6667726326
Bq        -3.0380445924    -2.2334599204     1.6450314421
Bq        -3.0379591263    -2.1884342241     1.6232902516
Bq        -3.0378736601    -2.1434085278     1.6015490611
Bq        -3.0377881940    -2.0983828314     1.5798078706
Bq        -3.0377027279    -2.0533571351     1.5580666800
Bq        -3.0376172617    -2.0083314388     1.5363254895
Bq        -3.0375317956    -1.9633057424     1.5145842990
Bq        -3.0374463295    -1.9182800461     1.4928431085
Bq        -3.0373608633    -1.8732543497     1.4711019180
Bq        -3.0372753972    -1.8282286534     1.4493607275
Bq        -3.0371899310    -1.7832029571     1.4276195369
Bq        -3.0371044649    -1.7381772607     1.4058783464
Bq        -3.0370189988    -1.6931515644     1.3841371559
Bq        -3.0369335326    -1.6481258681     1.3623959654
Bq        -3.0368480665    -1.6031001717     1.3406547749
Bq        -3.0367626004    -1.5580744754     1.3189135844
Bq        -3.0366771342    -1.5130487791     1.2971723938
Bq        -3.0365916681    -1.4680230827     1.2754312033
Bq        -3.0365062020    -1.4229973864     1.2536900128
Bq        -3.0364207358    -1.3779716901     1.2319488223
Bq        -3.0363352697    -1.3329459937     1.2102076318
Bq        -3.0362498035    -1.2879202974     1.1884664413
Bq        -3.0361643374    -1.2428946011     1.1667252507
Bq        -3.0360788713    -1.1978689047     1.1449840602
Bq        -3.0359934051    -1.1528432084     1.1232428697
Bq        -3.0359079390    -1.1078175120     1.1015016792
Bq        -3.0358224729    -1.0627918157     1.0797604887
Bq        -3.0357370067    -1.0177661194     1.0580192982
Bq        -3.0356515406    -0.9727404230     1.0362781077
Bq        -3.0355660744    -0.9277147267     1.0145369171
Bq        -3.0354806083    -0.8826890304     0.9927957266
Bq        -3.0353951422    -0.8376633340     0.9710545361
Bq        -3.0353096760    -0.7926376377     0.9493133456
Bq        -3.0352242099    -0.7476119414     0.9275721551
Bq        -3.0351387438    -0.7025862450     0.9058309646
Bq        -3.0350532776    -0.6575605487     0.8840897740
Bq        -3.0349678115    -0.6125348524     0.8623485835
Bq        -3.0348823453    -0.5675091560     0.8406073930
Bq        -3.0347968792    -0.5224834597     0.8188662025
Bq        -3.0347114131    -0.4774577634     0.7971250120
Bq        -3.0346259469    -0.4324320670     0.7753838215
Bq        -3.0345404808    -0.3874063707     0.7536426309
Bq        -3.0344550147    -0.3423806743     0.7319014404
Bq        -3.0343695485    -0.2973549780     0.7101602499
Bq        -3.0342840824    -0.2523292817     0.6884190594
Bq        -3.0341986162    -0.2073035853     0.6666778689
Bq        -3.0341131501    -0.1622778890     0.6449366784
Bq        -3.0340276840    -0.1172521927     0.6231954878
Bq        -3.0339422178    -0.0722264963     0.6014542973
Bq        -3.0338567517    -0.0272008000     0.5797131068
Bq        -3.0337712856     0.0178248963     0.5579719163
Bq        -3.0336858194     0.0628505927     0.5362307258
Bq        -3.0336003533     0.1078762890     0.5144895353

1
2
3
4
5
6
7
8
9
10
11
12
13
14
15
16
17
18
19
20
21
22
23
24
25
26
27
28
29
30
31
32
33
34
35
36
37
38
39
40
41
42
43
44
45
46
47
48
49
50
51
52
53
54
55
56
57
58
59
60
61
62
63
64
65
66
67
68
69
70
71
72
73
74
75
76
77
78
79
80
81
82
83
84
85
86
87
88
89
90
91
92
93
94
95
96
97
98
99
100
101
102
103
104
105
106
107
108
109
110
111
112
113
114
115
116
117
118
119
120
121
122
123
124
125
126
127
128
129
130
131
132
133
134
135
136
137
138
139
140
141
142
143
144
145
146
147
148
149
150
151
152
153
154
155
156
157
158
159
160
161
162
163
164
165
166
167
168
169
170
171
172
173
174
175
176
177
178
179
180
181
182
183
184
185
186
187
188
189
190
191
192
193
194
195
196
197
198
199
200
201
202
203
204
205
206
207
208
209
210
211
212
213
214
215
216
217
218
219
220
221
222
223
224
225
226
227
228
229
230
231
232
233
234
235
236

