%nproc=8
%mem=1000MB
# rb3lyp/6-311+g** NMR geom=connectivity

Title

0 1
C    -4.0500558   -0.5771862    0.8136712
H    -5.0263804   -1.0082727    1.0024760
C    -3.9381552    0.6617804    0.2400876
H    -4.8252424    1.2338890   -0.0111295
C    -2.6768410    1.2433246    0.0057578
C    -1.4974121    0.5051527    0.2848253
C    -1.6508332   -0.7338728    0.9404026
H    -0.7713646   -1.2730967    1.2633753
C    -2.8898548   -1.2624035    1.1994307
H    -2.9683706   -2.2124563    1.7152676
C    -2.5773185    2.5963696   -0.4192930
H    -3.4870728    3.1412239   -0.6474055
C    -1.3741895    3.2147896   -0.4364030
H    -1.2997315    4.2742019   -0.6578144
C    -0.1719488    2.4994090   -0.1734588
C    -0.2043917    1.1018437    0.0192689
C     1.0513491    3.2042560   -0.0676222
H     1.0427344    4.2819499   -0.1896997
C     2.1942091    2.5487446    0.2579577
H     3.1168527    3.0912848    0.4334727
C     2.2216473    1.1336562    0.2934990
C     1.0486931    0.3945528    0.0302412
C     3.4483363    0.4614633    0.5573939
H     4.3095794    1.0606054    0.8334846
C     3.5427346   -0.8855926    0.4749463
H     4.4731467   -1.3939704    0.7038822
C     2.4490052   -1.6474447   -0.0196319
C     1.2150704   -1.0057258   -0.3013573
C     0.2531113   -1.7434440   -1.0216591
H    -0.6541356   -1.2535051   -1.3462847
C     0.4494193   -3.0628597   -1.3413779
H    -0.3083162   -3.5944309   -1.9054060
C     1.6251726   -3.7207967   -0.9552541
H     1.7670048   -4.7687404   -1.1927019
C     2.6109872   -3.0144177   -0.3183050
H     3.5525612   -3.4902813   -0.0646367
Bq         0.2151464701     0.2121710570     0.3625205540
Bq         0.2156329472     0.2606409730     0.3502555393
Bq         0.2161194243     0.3091108890     0.3379905246
Bq         0.2166059014     0.3575808049     0.3257255099
Bq         0.2170923785     0.4060507209     0.3134604952
Bq         0.2175788557     0.4545206369     0.3011954805
Bq         0.2180653328     0.5029905529     0.2889304657
Bq         0.2185518099     0.5514604688     0.2766654510
Bq         0.2190382870     0.5999303848     0.2644004363
Bq         0.2195247641     0.6484003008     0.2521354216
Bq         0.2200112412     0.6968702167     0.2398704069
Bq         0.2204977183     0.7453401327     0.2276053922
Bq         0.2209841954     0.7938100487     0.2153403775
Bq         0.2214706726     0.8422799646     0.2030753627
Bq         0.2219571497     0.8907498806     0.1908103480
Bq         0.2224436268     0.9392197966     0.1785453333
Bq         0.2229301039     0.9876897125     0.1662803186
Bq         0.2234165810     1.0361596285     0.1540153039
Bq         0.2239030581     1.0846295445     0.1417502892
Bq         0.2243895352     1.1330994605     0.1294852745
Bq         0.2248760123     1.1815693764     0.1172202597
Bq         0.2253624895     1.2300392924     0.1049552450
Bq         0.2258489666     1.2785092084     0.0926902303
Bq         0.2263354437     1.3269791243     0.0804252156
Bq         0.2268219208     1.3754490403     0.0681602009
Bq         0.2273083979     1.4239189563     0.0558951862
Bq         0.2277948750     1.4723888722     0.0436301715
Bq         0.2282813521     1.5208587882     0.0313651568
Bq         0.2287678292     1.5693287042     0.0191001420
Bq         0.2292543063     1.6177986202     0.0068351273
Bq         0.2297407835     1.6662685361    -0.0054298874
Bq         0.2302272606     1.7147384521    -0.0176949021
Bq         0.2307137377     1.7632083681    -0.0299599168
Bq         0.2312002148     1.8116782840    -0.0422249315
Bq         0.2316866919     1.8601482000    -0.0544899462
Bq         0.2321731690     1.9086181160    -0.0667549610
Bq         0.2326596461     1.9570880319    -0.0790199757
Bq         0.2331461232     2.0055579479    -0.0912849904
Bq         0.2336326004     2.0540278639    -0.1035500051
Bq         0.2341190775     2.1024977798    -0.1158150198
Bq         0.2346055546     2.1509676958    -0.1280800345
Bq         0.2350920317     2.1994376118    -0.1403450492
Bq         0.2355785088     2.2479075278    -0.1526100640
Bq         0.2360649859     2.2963774437    -0.1648750787
Bq         0.2365514630     2.3448473597    -0.1771400934
Bq         0.2370379401     2.3933172757    -0.1894051081
Bq         0.2375244173     2.4417871916    -0.2016701228
Bq         0.2380108944     2.4902571076    -0.2139351375
Bq         0.2384973715     2.5387270236    -0.2262001522
Bq         0.2389838486     2.5871969395    -0.2384651669
Bq         0.2394703257     2.6356668555    -0.2507301817
Bq         0.2399568028     2.6841367715    -0.2629951964
Bq         0.2404432799     2.7326066875    -0.2752602111
Bq         0.2409297570     2.7810766034    -0.2875252258
Bq         0.2414162342     2.8295465194    -0.2997902405
Bq         0.2419027113     2.8780164354    -0.3120552552
Bq         0.2423891884     2.9264863513    -0.3243202699
Bq         0.2428756655     2.9749562673    -0.3365852847
Bq         0.2433621426     3.0234261833    -0.3488502994
Bq         0.2438486197     3.0718960992    -0.3611153141
Bq         0.2443350968     3.1203660152    -0.3733803288
Bq         0.2448215739     3.1688359312    -0.3856453435
Bq         0.2453080511     3.2173058471    -0.3979103582
Bq         0.2457945282     3.2657757631    -0.4101753729
Bq         0.2462810053     3.3142456791    -0.4224403876
Bq         0.2467674824     3.3627155951    -0.4347054024
Bq         0.2472539595     3.4111855110    -0.4469704171
Bq         0.2477404366     3.4596554270    -0.4592354318
Bq         0.2482269137     3.5081253430    -0.4715004465
Bq         0.2487133908     3.5565952589    -0.4837654612
Bq         0.2491998679     3.6050651749    -0.4960304759
Bq         0.2496863451     3.6535350909    -0.5082954906
Bq         0.2501728222     3.7020050068    -0.5205605054
Bq         0.2506592993     3.7504749228    -0.5328255201
Bq         0.2511457764     3.7989448388    -0.5450905348
Bq         0.2516322535     3.8474147548    -0.5573555495
Bq         0.2521187306     3.8958846707    -0.5696205642
Bq         0.2526052077     3.9443545867    -0.5818855789
Bq         0.2530916848     3.9928245027    -0.5941505936
Bq         0.2535781620     4.0412944186    -0.6064156084
Bq         0.2540646391     4.0897643346    -0.6186806231
Bq         0.2545511162     4.1382342506    -0.6309456378
Bq         0.2550375933     4.1867041665    -0.6432106525
Bq         0.2555240704     4.2351740825    -0.6554756672
Bq         0.2560105475     4.2836439985    -0.6677406819
Bq         0.2573235522    -0.5633475985     0.5607424214
Bq         0.2578100293    -0.5148776825     0.5484774067
Bq         0.2582965064    -0.4664077665     0.5362123919
Bq         0.2587829836    -0.4179378506     0.5239473772
Bq         0.2592694607    -0.3694679346     0.5116823625
Bq         0.2597559378    -0.3209980186     0.4994173478
Bq         0.2602424149    -0.2725281027     0.4871523331
Bq         0.2607288920    -0.2240581867     0.4748873184
Bq         0.2612153691    -0.1755882707     0.4626223037
Bq         0.2617018462    -0.1271183548     0.4503572889
Bq         0.2621883233    -0.0786484388     0.4380922742
Bq         0.2626748005    -0.0301785228     0.4258272595
Bq         0.2631612776     0.0182913932     0.4135622448
Bq         0.2636477547     0.0667613091     0.4012972301
Bq         0.2641342318     0.1152312251     0.3890322154
Bq         0.2646207089     0.1637011411     0.3767672007
Bq         0.2651071860     0.2121710570     0.3645021860
Bq         0.2655936631     0.2606409730     0.3522371712
Bq         0.2660801402     0.3091108890     0.3399721565
Bq         0.2665666173     0.3575808049     0.3277071418
Bq         0.2670530945     0.4060507209     0.3154421271
Bq         0.2675395716     0.4545206369     0.3031771124
Bq         0.2680260487     0.5029905529     0.2909120977
Bq         0.2685125258     0.5514604688     0.2786470830
Bq         0.2689990029     0.5999303848     0.2663820682
Bq         0.2694854800     0.6484003008     0.2541170535
Bq         0.2699719571     0.6968702167     0.2418520388
Bq         0.2704584342     0.7453401327     0.2295870241
Bq         0.2709449114     0.7938100487     0.2173220094
Bq         0.2714313885     0.8422799646     0.2050569947
Bq         0.2719178656     0.8907498806     0.1927919800
Bq         0.2724043427     0.9392197966     0.1805269652
Bq         0.2728908198     0.9876897125     0.1682619505
Bq         0.2733772969     1.0361596285     0.1559969358
Bq         0.2738637740     1.0846295445     0.1437319211
Bq         0.2743502511     1.1330994605     0.1314669064
Bq         0.2748367283     1.1815693764     0.1192018917
Bq         0.2753232054     1.2300392924     0.1069368770
Bq         0.2758096825     1.2785092084     0.0946718623
Bq         0.2762961596     1.3269791243     0.0824068475
Bq         0.2767826367     1.3754490403     0.0701418328
Bq         0.2772691138     1.4239189563     0.0578768181
Bq         0.2777555909     1.4723888722     0.0456118034
Bq         0.2782420680     1.5208587882     0.0333467887
Bq         0.2787285452     1.5693287042     0.0210817740
Bq         0.2792150223     1.6177986202     0.0088167593
Bq         0.2797014994     1.6662685361    -0.0034482555
Bq         0.2801879765     1.7147384521    -0.0157132702
Bq         0.2806744536     1.7632083681    -0.0279782849
Bq         0.2811609307     1.8116782840    -0.0402432996
Bq         0.2816474078     1.8601482000    -0.0525083143
Bq         0.2821338849     1.9086181160    -0.0647733290
Bq         0.2826203621     1.9570880319    -0.0770383437
Bq         0.2831068392     2.0055579479    -0.0893033585
Bq         0.2835933163     2.0540278639    -0.1015683732
Bq         0.2840797934     2.1024977798    -0.1138333879
Bq         0.2845662705     2.1509676958    -0.1260984026
Bq         0.2850527476     2.1994376118    -0.1383634173
Bq         0.2855392247     2.2479075278    -0.1506284320
Bq         0.2860257018     2.2963774437    -0.1628934467
Bq         0.2865121789     2.3448473597    -0.1751584614
Bq         0.2869986561     2.3933172757    -0.1874234762
Bq         0.2874851332     2.4417871916    -0.1996884909
Bq         0.2879716103     2.4902571076    -0.2119535056
Bq         0.2884580874     2.5387270236    -0.2242185203
Bq         0.2889445645     2.5871969395    -0.2364835350
Bq         0.2894310416     2.6356668555    -0.2487485497
Bq         0.2899175187     2.6841367715    -0.2610135644
Bq         0.2904039958     2.7326066875    -0.2732785792
Bq         0.2908904730     2.7810766034    -0.2855435939
Bq         0.2913769501     2.8295465194    -0.2978086086
Bq         0.2918634272     2.8780164354    -0.3100736233
Bq         0.2923499043     2.9264863513    -0.3223386380
Bq         0.2928363814     2.9749562673    -0.3346036527
Bq         0.2933228585     3.0234261833    -0.3468686674
Bq         0.2938093356     3.0718960992    -0.3591336821
Bq         0.2942958127     3.1203660152    -0.3713986969
Bq         0.2947822899     3.1688359312    -0.3836637116
Bq         0.2952687670     3.2173058471    -0.3959287263
Bq         0.2957552441     3.2657757631    -0.4081937410
Bq         0.2962417212     3.3142456791    -0.4204587557
Bq         0.2967281983     3.3627155951    -0.4327237704
Bq         0.2972146754     3.4111855110    -0.4449887851
Bq         0.2977011525     3.4596554270    -0.4572537999
Bq         0.2981876296     3.5081253430    -0.4695188146
Bq         0.2986741068     3.5565952589    -0.4817838293
Bq         0.2991605839     3.6050651749    -0.4940488440
Bq         0.2996470610     3.6535350909    -0.5063138587
Bq         0.3001335381     3.7020050068    -0.5185788734
Bq         0.3006200152     3.7504749228    -0.5308438881
Bq         0.3011064923     3.7989448388    -0.5431089029
Bq         0.3015929694     3.8474147548    -0.5553739176
Bq         0.3020794465     3.8958846707    -0.5676389323
Bq         0.3025659237     3.9443545867    -0.5799039470
Bq         0.3030524008     3.9928245027    -0.5921689617
Bq         0.3035388779     4.0412944186    -0.6044339764
Bq         0.3040253550     4.0897643346    -0.6166989911
Bq         0.3045118321     4.1382342506    -0.6289640058
Bq         0.3049983092     4.1867041665    -0.6412290206
Bq         0.3054847863     4.2351740825    -0.6534940353
Bq         0.3059712634     4.2836439985    -0.6657590500
Bq         0.3072842681    -0.5633475985     0.5627240533
Bq         0.3077707452    -0.5148776825     0.5504590386
Bq         0.3082572224    -0.4664077665     0.5381940239
Bq         0.3087436995    -0.4179378506     0.5259290092
Bq         0.3092301766    -0.3694679346     0.5136639944
Bq         0.3097166537    -0.3209980186     0.5013989797
Bq         0.3102031308    -0.2725281027     0.4891339650
Bq         0.3106896079    -0.2240581867     0.4768689503
Bq         0.3111760850    -0.1755882707     0.4646039356
Bq         0.3116625621    -0.1271183548     0.4523389209
Bq         0.3121490393    -0.0786484388     0.4400739062
Bq         0.3126355164    -0.0301785228     0.4278088915
Bq         0.3131219935     0.0182913932     0.4155438767
Bq         0.3136084706     0.0667613091     0.4032788620

1
2
3
4
5
6
7
8
9
10
11
12
13
14
15
16
17
18
19
20
21
22
23
24
25
26
27
28
29
30
31
32
33
34
35
36
37
38
39
40
41
42
43
44
45
46
47
48
49
50
51
52
53
54
55
56
57
58
59
60
61
62
63
64
65
66
67
68
69
70
71
72
73
74
75
76
77
78
79
80
81
82
83
84
85
86
87
88
89
90
91
92
93
94
95
96
97
98
99
100
101
102
103
104
105
106
107
108
109
110
111
112
113
114
115
116
117
118
119
120
121
122
123
124
125
126
127
128
129
130
131
132
133
134
135
136
137
138
139
140
141
142
143
144
145
146
147
148
149
150
151
152
153
154
155
156
157
158
159
160
161
162
163
164
165
166
167
168
169
170
171
172
173
174
175
176
177
178
179
180
181
182
183
184
185
186
187
188
189
190
191
192
193
194
195
196
197
198
199
200
201
202
203
204
205
206
207
208
209
210
211
212
213
214
215
216
217
218
219
220
221
222
223
224
225
226
227
228
229
230
231
232
233
234
235
236

