%nproc=8
%mem=1000MB
# rb3lyp/6-311+g** NMR geom=connectivity

Title

0 1
C    -4.0500558   -0.5771862    0.8136712
H    -5.0263804   -1.0082727    1.0024760
C    -3.9381552    0.6617804    0.2400876
H    -4.8252424    1.2338890   -0.0111295
C    -2.6768410    1.2433246    0.0057578
C    -1.4974121    0.5051527    0.2848253
C    -1.6508332   -0.7338728    0.9404026
H    -0.7713646   -1.2730967    1.2633753
C    -2.8898548   -1.2624035    1.1994307
H    -2.9683706   -2.2124563    1.7152676
C    -2.5773185    2.5963696   -0.4192930
H    -3.4870728    3.1412239   -0.6474055
C    -1.3741895    3.2147896   -0.4364030
H    -1.2997315    4.2742019   -0.6578144
C    -0.1719488    2.4994090   -0.1734588
C    -0.2043917    1.1018437    0.0192689
C     1.0513491    3.2042560   -0.0676222
H     1.0427344    4.2819499   -0.1896997
C     2.1942091    2.5487446    0.2579577
H     3.1168527    3.0912848    0.4334727
C     2.2216473    1.1336562    0.2934990
C     1.0486931    0.3945528    0.0302412
C     3.4483363    0.4614633    0.5573939
H     4.3095794    1.0606054    0.8334846
C     3.5427346   -0.8855926    0.4749463
H     4.4731467   -1.3939704    0.7038822
C     2.4490052   -1.6474447   -0.0196319
C     1.2150704   -1.0057258   -0.3013573
C     0.2531113   -1.7434440   -1.0216591
H    -0.6541356   -1.2535051   -1.3462847
C     0.4494193   -3.0628597   -1.3413779
H    -0.3083162   -3.5944309   -1.9054060
C     1.6251726   -3.7207967   -0.9552541
H     1.7670048   -4.7687404   -1.1927019
C     2.6109872   -3.0144177   -0.3183050
H     3.5525612   -3.4902813   -0.0646367
Bq        -1.5360904611    -1.1978689047     1.1508806194
Bq        -1.5360049950    -1.1528432084     1.1291394289
Bq        -1.5359195288    -1.1078175120     1.1073982383
Bq        -1.5358340627    -1.0627918157     1.0856570478
Bq        -1.5357485966    -1.0177661194     1.0639158573
Bq        -1.5356631304    -0.9727404230     1.0421746668
Bq        -1.5355776643    -0.9277147267     1.0204334763
Bq        -1.5354921981    -0.8826890304     0.9986922858
Bq        -1.5354067320    -0.8376633340     0.9769510952
Bq        -1.5353212659    -0.7926376377     0.9552099047
Bq        -1.5352357997    -0.7476119414     0.9334687142
Bq        -1.5351503336    -0.7025862450     0.9117275237
Bq        -1.5350648675    -0.6575605487     0.8899863332
Bq        -1.5349794013    -0.6125348524     0.8682451427
Bq        -1.5348939352    -0.5675091560     0.8465039521
Bq        -1.5348084691    -0.5224834597     0.8247627616
Bq        -1.5347230029    -0.4774577634     0.8030215711
Bq        -1.5346375368    -0.4324320670     0.7812803806
Bq        -1.5345520706    -0.3874063707     0.7595391901
Bq        -1.5344666045    -0.3423806743     0.7377979996
Bq        -1.5343811384    -0.2973549780     0.7160568090
Bq        -1.5342956722    -0.2523292817     0.6943156185
Bq        -1.5342102061    -0.2073035853     0.6725744280
Bq        -1.5341247400    -0.1622778890     0.6508332375
Bq        -1.5340392738    -0.1172521927     0.6290920470
Bq        -1.5339538077    -0.0722264963     0.6073508565
Bq        -1.5338683415    -0.0272008000     0.5856096659
Bq        -1.5337828754     0.0178248963     0.5638684754
Bq        -1.5336974093     0.0628505927     0.5421272849
Bq        -1.5336119431     0.1078762890     0.5203860944
Bq        -1.5335264770     0.1529019853     0.4986449039
Bq        -1.5334410109     0.1979276817     0.4769037134
Bq        -1.5333555447     0.2429533780     0.4551625228
Bq        -1.5332700786     0.2879790743     0.4334213323
Bq        -1.5331846124     0.3330047707     0.4116801418
Bq        -1.5330991463     0.3780304670     0.3899389513
Bq        -1.5330136802     0.4230561634     0.3681977608
Bq        -1.5329282140     0.4680818597     0.3464565703
Bq        -1.5328427479     0.5131075560     0.3247153797
Bq        -1.5327572818     0.5581332524     0.3029741892
Bq        -1.5326718156     0.6031589487     0.2812329987
Bq        -1.5325863495     0.6481846450     0.2594918082
Bq        -1.5325008833     0.6932103414     0.2377506177
Bq        -1.5324154172     0.7382360377     0.2160094272
Bq        -1.5323299511     0.7832617340     0.1942682367
Bq        -1.5322444849     0.8282874304     0.1725270461
Bq        -1.5321590188     0.8733131267     0.1507858556
Bq        -1.5320735527     0.9183388230     0.1290446651
Bq        -1.5319880865     0.9633645194     0.1073034746
Bq        -1.5319026204     1.0083902157     0.0855622841
Bq        -1.5318171542     1.0534159120     0.0638210936
Bq        -1.5317316881     1.0984416084     0.0420799030
Bq        -1.5316462220     1.1434673047     0.0203387125
Bq        -1.5315607558     1.1884930011    -0.0014024780
Bq        -1.5314752897     1.2335186974    -0.0231436685
Bq        -1.5313898236     1.2785443937    -0.0448848590
Bq        -1.5313043574     1.3235700901    -0.0666260495
Bq        -1.5312188913     1.3685957864    -0.0883672401
Bq        -1.5311334251     1.4136214827    -0.1101084306
Bq        -1.5310479590     1.4586471791    -0.1318496211
Bq        -1.5309624929     1.5036728754    -0.1535908116
Bq        -1.5308770267     1.5486985717    -0.1753320021
Bq        -1.5307915606     1.5937242681    -0.1970731926
Bq        -1.5307060945     1.6387499644    -0.2188143832
Bq        -1.5306206283     1.6837756607    -0.2405555737
Bq        -1.5305351622     1.7288013571    -0.2622967642
Bq        -1.5304496960     1.7738270534    -0.2840379547
Bq        -1.5303642299     1.8188527497    -0.3057791452
Bq        -1.5302787638     1.8638784461    -0.3275203357
Bq        -1.5301932976     1.9089041424    -0.3492615263
Bq        -1.5301078315     1.9539298388    -0.3710027168
Bq        -1.5300223654     1.9989555351    -0.3927439073
Bq        -1.5299368992     2.0439812314    -0.4144850978
Bq        -1.5298514331     2.0890069278    -0.4362262883
Bq        -1.5297659669     2.1340326241    -0.4579674788
Bq        -1.5296805008     2.1790583204    -0.4797086694
Bq        -1.5295950347     2.2240840168    -0.5014498599
Bq        -1.4881420347    -2.2784856168     1.6728657437
Bq        -1.4880565686    -2.2334599204     1.6511245532
Bq        -1.4879711025    -2.1884342241     1.6293833627
Bq        -1.4878856363    -2.1434085278     1.6076421722
Bq        -1.4878001702    -2.0983828314     1.5859009817
Bq        -1.4877147040    -2.0533571351     1.5641597911
Bq        -1.4876292379    -2.0083314388     1.5424186006
Bq        -1.4875437718    -1.9633057424     1.5206774101
Bq        -1.4874583056    -1.9182800461     1.4989362196
Bq        -1.4873728395    -1.8732543497     1.4771950291
Bq        -1.4872873734    -1.8282286534     1.4554538386
Bq        -1.4872019072    -1.7832029571     1.4337126480
Bq        -1.4871164411    -1.7381772607     1.4119714575
Bq        -1.4870309750    -1.6931515644     1.3902302670
Bq        -1.4869455088    -1.6481258681     1.3684890765
Bq        -1.4868600427    -1.6031001717     1.3467478860
Bq        -1.4867745765    -1.5580744754     1.3250066955
Bq        -1.4866891104    -1.5130487791     1.3032655050
Bq        -1.4866036443    -1.4680230827     1.2815243144
Bq        -1.4865181781    -1.4229973864     1.2597831239
Bq        -1.4864327120    -1.3779716901     1.2380419334
Bq        -1.4863472459    -1.3329459937     1.2163007429
Bq        -1.4862617797    -1.2879202974     1.1945595524
Bq        -1.4861763136    -1.2428946011     1.1728183619
Bq        -1.4860908474    -1.1978689047     1.1510771713
Bq        -1.4860053813    -1.1528432084     1.1293359808
Bq        -1.4859199152    -1.1078175120     1.1075947903
Bq        -1.4858344490    -1.0627918157     1.0858535998
Bq        -1.4857489829    -1.0177661194     1.0641124093
Bq        -1.4856635168    -0.9727404230     1.0423712188
Bq        -1.4855780506    -0.9277147267     1.0206300282
Bq        -1.4854925845    -0.8826890304     0.9988888377
Bq        -1.4854071183    -0.8376633340     0.9771476472
Bq        -1.4853216522    -0.7926376377     0.9554064567
Bq        -1.4852361861    -0.7476119414     0.9336652662
Bq        -1.4851507199    -0.7025862450     0.9119240757
Bq        -1.4850652538    -0.6575605487     0.8901828851
Bq        -1.4849797877    -0.6125348524     0.8684416946
Bq        -1.4848943215    -0.5675091560     0.8467005041
Bq        -1.4848088554    -0.5224834597     0.8249593136
Bq        -1.4847233892    -0.4774577634     0.8032181231
Bq        -1.4846379231    -0.4324320670     0.7814769326
Bq        -1.4845524570    -0.3874063707     0.7597357420
Bq        -1.4844669908    -0.3423806743     0.7379945515
Bq        -1.4843815247    -0.2973549780     0.7162533610
Bq        -1.4842960586    -0.2523292817     0.6945121705
Bq        -1.4842105924    -0.2073035853     0.6727709800
Bq        -1.4841251263    -0.1622778890     0.6510297895
Bq        -1.4840396601    -0.1172521927     0.6292885989
Bq        -1.4839541940    -0.0722264963     0.6075474084
Bq        -1.4838687279    -0.0272008000     0.5858062179
Bq        -1.4837832617     0.0178248963     0.5640650274
Bq        -1.4836977956     0.0628505927     0.5423238369
Bq        -1.4836123295     0.1078762890     0.5205826464
Bq        -1.4835268633     0.1529019853     0.4988414559
Bq        -1.4834413972     0.1979276817     0.4771002653
Bq        -1.4833559310     0.2429533780     0.4553590748
Bq        -1.4832704649     0.2879790743     0.4336178843
Bq        -1.4831849988     0.3330047707     0.4118766938
Bq        -1.4830995326     0.3780304670     0.3901355033
Bq        -1.4830140665     0.4230561634     0.3683943128
Bq        -1.4829286004     0.4680818597     0.3466531222
Bq        -1.4828431342     0.5131075560     0.3249119317
Bq        -1.4827576681     0.5581332524     0.3031707412
Bq        -1.4826722019     0.6031589487     0.2814295507
Bq        -1.4825867358     0.6481846450     0.2596883602
Bq        -1.4825012697     0.6932103414     0.2379471697
Bq        -1.4824158035     0.7382360377     0.2162059791
Bq        -1.4823303374     0.7832617340     0.1944647886
Bq        -1.4822448713     0.8282874304     0.1727235981
Bq        -1.4821594051     0.8733131267     0.1509824076
Bq        -1.4820739390     0.9183388230     0.1292412171
Bq        -1.4819884728     0.9633645194     0.1075000266
Bq        -1.4819030067     1.0083902157     0.0857588360
Bq        -1.4818175406     1.0534159120     0.0640176455
Bq        -1.4817320744     1.0984416084     0.0422764550
Bq        -1.4816466083     1.1434673047     0.0205352645
Bq        -1.4815611422     1.1884930011    -0.0012059260
Bq        -1.4814756760     1.2335186974    -0.0229471165
Bq        -1.4813902099     1.2785443937    -0.0446883071
Bq        -1.4813047437     1.3235700901    -0.0664294976
Bq        -1.4812192776     1.3685957864    -0.0881706881
Bq        -1.4811338115     1.4136214827    -0.1099118786
Bq        -1.4810483453     1.4586471791    -0.1316530691
Bq        -1.4809628792     1.5036728754    -0.1533942596
Bq        -1.4808774131     1.5486985717    -0.1751354502
Bq        -1.4807919469     1.5937242681    -0.1968766407
Bq        -1.4807064808     1.6387499644    -0.2186178312
Bq        -1.4806210146     1.6837756607    -0.2403590217
Bq        -1.4805355485     1.7288013571    -0.2621002122
Bq        -1.4804500824     1.7738270534    -0.2838414027
Bq        -1.4803646162     1.8188527497    -0.3055825933
Bq        -1.4802791501     1.8638784461    -0.3273237838
Bq        -1.4801936840     1.9089041424    -0.3490649743
Bq        -1.4801082178     1.9539298388    -0.3708061648
Bq        -1.4800227517     1.9989555351    -0.3925473553
Bq        -1.4799372855     2.0439812314    -0.4142885458
Bq        -1.4798518194     2.0890069278    -0.4360297363
Bq        -1.4797663533     2.1340326241    -0.4577709269
Bq        -1.4796808871     2.1790583204    -0.4795121174
Bq        -1.4795954210     2.2240840168    -0.5012533079
Bq        -1.4381424211    -2.2784856168     1.6730622957
Bq        -1.4380569549    -2.2334599204     1.6513211052
Bq        -1.4379714888    -2.1884342241     1.6295799147
Bq        -1.4378860227    -2.1434085278     1.6078387241
Bq        -1.4378005565    -2.0983828314     1.5860975336
Bq        -1.4377150904    -2.0533571351     1.5643563431
Bq        -1.4376296242    -2.0083314388     1.5426151526
Bq        -1.4375441581    -1.9633057424     1.5208739621
Bq        -1.4374586920    -1.9182800461     1.4991327716
Bq        -1.4373732258    -1.8732543497     1.4773915811
Bq        -1.4372877597    -1.8282286534     1.4556503905
Bq        -1.4372022936    -1.7832029571     1.4339092000
Bq        -1.4371168274    -1.7381772607     1.4121680095
Bq        -1.4370313613    -1.6931515644     1.3904268190
Bq        -1.4369458951    -1.6481258681     1.3686856285
Bq        -1.4368604290    -1.6031001717     1.3469444380
Bq        -1.4367749629    -1.5580744754     1.3252032474
Bq        -1.4366894967    -1.5130487791     1.3034620569
Bq        -1.4366040306    -1.4680230827     1.2817208664
Bq        -1.4365185645    -1.4229973864     1.2599796759
Bq        -1.4364330983    -1.3779716901     1.2382384854
Bq        -1.4363476322    -1.3329459937     1.2164972949

1
2
3
4
5
6
7
8
9
10
11
12
13
14
15
16
17
18
19
20
21
22
23
24
25
26
27
28
29
30
31
32
33
34
35
36
37
38
39
40
41
42
43
44
45
46
47
48
49
50
51
52
53
54
55
56
57
58
59
60
61
62
63
64
65
66
67
68
69
70
71
72
73
74
75
76
77
78
79
80
81
82
83
84
85
86
87
88
89
90
91
92
93
94
95
96
97
98
99
100
101
102
103
104
105
106
107
108
109
110
111
112
113
114
115
116
117
118
119
120
121
122
123
124
125
126
127
128
129
130
131
132
133
134
135
136
137
138
139
140
141
142
143
144
145
146
147
148
149
150
151
152
153
154
155
156
157
158
159
160
161
162
163
164
165
166
167
168
169
170
171
172
173
174
175
176
177
178
179
180
181
182
183
184
185
186
187
188
189
190
191
192
193
194
195
196
197
198
199
200
201
202
203
204
205
206
207
208
209
210
211
212
213
214
215
216
217
218
219
220
221
222
223
224
225
226
227
228
229
230
231
232
233
234
235
236

