%nproc=8
%mem=1000MB
# rb3lyp/6-311+g** NMR geom=connectivity

Title

0 1
C    -4.0500558   -0.5771862    0.8136712
H    -5.0263804   -1.0082727    1.0024760
C    -3.9381552    0.6617804    0.2400876
H    -4.8252424    1.2338890   -0.0111295
C    -2.6768410    1.2433246    0.0057578
C    -1.4974121    0.5051527    0.2848253
C    -1.6508332   -0.7338728    0.9404026
H    -0.7713646   -1.2730967    1.2633753
C    -2.8898548   -1.2624035    1.1994307
H    -2.9683706   -2.2124563    1.7152676
C    -2.5773185    2.5963696   -0.4192930
H    -3.4870728    3.1412239   -0.6474055
C    -1.3741895    3.2147896   -0.4364030
H    -1.2997315    4.2742019   -0.6578144
C    -0.1719488    2.4994090   -0.1734588
C    -0.2043917    1.1018437    0.0192689
C     1.0513491    3.2042560   -0.0676222
H     1.0427344    4.2819499   -0.1896997
C     2.1942091    2.5487446    0.2579577
H     3.1168527    3.0912848    0.4334727
C     2.2216473    1.1336562    0.2934990
C     1.0486931    0.3945528    0.0302412
C     3.4483363    0.4614633    0.5573939
H     4.3095794    1.0606054    0.8334846
C     3.5427346   -0.8855926    0.4749463
H     4.4731467   -1.3939704    0.7038822
C     2.4490052   -1.6474447   -0.0196319
C     1.2150704   -1.0057258   -0.3013573
C     0.2531113   -1.7434440   -1.0216591
H    -0.6541356   -1.2535051   -1.3462847
C     0.4494193   -3.0628597   -1.3413779
H    -0.3083162   -3.5944309   -1.9054060
C     1.6251726   -3.7207967   -0.9552541
H     1.7670048   -4.7687404   -1.1927019
C     2.6109872   -3.0144177   -0.3183050
H     3.5525612   -3.4902813   -0.0646367
Bq         3.2752993641    -1.2480087404     0.2815662314
Bq         3.2734538389    -1.1985173933     0.2884365012
Bq         3.2716083136    -1.1490260463     0.2953067710
Bq         3.2697627883    -1.0995346993     0.3021770407
Bq         3.2679172631    -1.0500433523     0.3090473105
Bq         3.2660717378    -1.0005520053     0.3159175803
Bq         3.2642262125    -0.9510606583     0.3227878501
Bq         3.2623806873    -0.9015693112     0.3296581199
Bq         3.2605351620    -0.8520779642     0.3365283896
Bq         3.2586896367    -0.8025866172     0.3433986594
Bq         3.2568441115    -0.7530952702     0.3502689292
Bq         3.2549985862    -0.7036039232     0.3571391990
Bq         3.2531530609    -0.6541125761     0.3640094688
Bq         3.2513075356    -0.6046212291     0.3708797385
Bq         3.2494620104    -0.5551298821     0.3777500083
Bq         3.2476164851    -0.5056385351     0.3846202781
Bq         3.2457709598    -0.4561471881     0.3914905479
Bq         3.2439254346    -0.4066558411     0.3983608177
Bq         3.2420799093    -0.3571644940     0.4052310874
Bq         3.2402343840    -0.3076731470     0.4121013572
Bq         3.2383888588    -0.2581818000     0.4189716270
Bq         3.2365433335    -0.2086904530     0.4258418968
Bq         3.2346978082    -0.1591991060     0.4327121666
Bq         3.2328522830    -0.1097077589     0.4395824363
Bq         3.2310067577    -0.0602164119     0.4464527061
Bq         3.2291612324    -0.0107250649     0.4533229759
Bq         3.2273157072     0.0387662821     0.4601932457
Bq         3.2254701819     0.0882576291     0.4670635155
Bq         3.2236246566     0.1377489761     0.4739337852
Bq         3.2217791314     0.1872403232     0.4808040550
Bq         3.2199336061     0.2367316702     0.4876743248
Bq         3.2180880808     0.2862230172     0.4945445946
Bq         3.2162425556     0.3357143642     0.5014148643
Bq         3.2143970303     0.3852057112     0.5082851341
Bq         3.2125515050     0.4346970583     0.5151554039
Bq         3.2107059798     0.4841884053     0.5220256737
Bq         3.2088604545     0.5336797523     0.5288959435
Bq         3.2070149292     0.5831710993     0.5357662132
Bq         3.2051694040     0.6326624463     0.5426364830
Bq         3.2033238787     0.6821537933     0.5495067528
Bq         3.2014783534     0.7316451404     0.5563770226
Bq         3.1996328282     0.7811364874     0.5632472924
Bq         3.1977873029     0.8306278344     0.5701175621
Bq         3.1959417776     0.8801191814     0.5769878319
Bq         3.1940962524     0.9296105284     0.5838581017
Bq         3.1922507271     0.9791018754     0.5907283715
Bq         3.1904052018     1.0285932225     0.5975986413
Bq         3.1885596765     1.0780845695     0.6044689110
Bq         3.1867141513     1.1275759165     0.6113391808
Bq         3.1848686260     1.1770672635     0.6182094506
Bq         3.1830231007     1.2265586105     0.6250797204
Bq         3.1811775755     1.2760499576     0.6319499902
Bq         3.1793320502     1.3255413046     0.6388202599
Bq         3.1774865249     1.3750326516     0.6456905297
Bq         3.1756409997     1.4245239986     0.6525607995
Bq         3.1737954744     1.4740153456     0.6594310693
Bq         3.1719499491     1.5235066926     0.6663013391
Bq         3.1701044239     1.5729980397     0.6731716088
Bq         3.1682588986     1.6224893867     0.6800418786
Bq         3.1664133733     1.6719807337     0.6869121484
Bq         3.1645678481     1.7214720807     0.6937824182
Bq         3.1627223228     1.7709634277     0.7006526880
Bq         3.1608767975     1.8204547748     0.7075229577
Bq         3.1590312723     1.8699461218     0.7143932275
Bq         3.1571857470     1.9194374688     0.7212634973
Bq         3.1553402217     1.9689288158     0.7281337671
Bq         3.1534946965     2.0184201628     0.7350040368
Bq         3.1516491712     2.0679115098     0.7418743066
Bq         3.1498036459     2.1174028569     0.7487445764
Bq         3.1479581207     2.1668942039     0.7556148462
Bq         3.1461125954     2.2163855509     0.7624851160
Bq         3.3789532472    -2.7327491509     0.0884295289
Bq         3.3771077219    -2.6832578039     0.0952997987
Bq         3.3752621966    -2.6337664569     0.1021700685
Bq         3.3734166714    -2.5842751098     0.1090403383
Bq         3.3715711461    -2.5347837628     0.1159106080
Bq         3.3697256208    -2.4852924158     0.1227808778
Bq         3.3678800956    -2.4358010688     0.1296511476
Bq         3.3660345703    -2.3863097218     0.1365214174
Bq         3.3641890450    -2.3368183748     0.1433916872
Bq         3.3623435198    -2.2873270277     0.1502619569
Bq         3.3604979945    -2.2378356807     0.1571322267
Bq         3.3586524692    -2.1883443337     0.1640024965
Bq         3.3568069440    -2.1388529867     0.1708727663
Bq         3.3549614187    -2.0893616397     0.1777430361
Bq         3.3531158934    -2.0398702926     0.1846133058
Bq         3.3512703682    -1.9903789456     0.1914835756
Bq         3.3494248429    -1.9408875986     0.1983538454
Bq         3.3475793176    -1.8913962516     0.2052241152
Bq         3.3457337924    -1.8419049046     0.2120943849
Bq         3.3438882671    -1.7924135576     0.2189646547
Bq         3.3420427418    -1.7429222105     0.2258349245
Bq         3.3401972166    -1.6934308635     0.2327051943
Bq         3.3383516913    -1.6439395165     0.2395754641
Bq         3.3365061660    -1.5944481695     0.2464457338
Bq         3.3346606408    -1.5449568225     0.2533160036
Bq         3.3328151155    -1.4954654754     0.2601862734
Bq         3.3309695902    -1.4459741284     0.2670565432
Bq         3.3291240650    -1.3964827814     0.2739268130
Bq         3.3272785397    -1.3469914344     0.2807970827
Bq         3.3254330144    -1.2975000874     0.2876673525
Bq         3.3235874892    -1.2480087404     0.2945376223
Bq         3.3217419639    -1.1985173933     0.3014078921
Bq         3.3198964386    -1.1490260463     0.3082781619
Bq         3.3180509133    -1.0995346993     0.3151484316
Bq         3.3162053881    -1.0500433523     0.3220187014
Bq         3.3143598628    -1.0005520053     0.3288889712
Bq         3.3125143375    -0.9510606583     0.3357592410
Bq         3.3106688123    -0.9015693112     0.3426295108
Bq         3.3088232870    -0.8520779642     0.3494997805
Bq         3.3069777617    -0.8025866172     0.3563700503
Bq         3.3051322365    -0.7530952702     0.3632403201
Bq         3.3032867112    -0.7036039232     0.3701105899
Bq         3.3014411859    -0.6541125761     0.3769808597
Bq         3.2995956607    -0.6046212291     0.3838511294
Bq         3.2977501354    -0.5551298821     0.3907213992
Bq         3.2959046101    -0.5056385351     0.3975916690
Bq         3.2940590849    -0.4561471881     0.4044619388
Bq         3.2922135596    -0.4066558411     0.4113322086
Bq         3.2903680343    -0.3571644940     0.4182024783
Bq         3.2885225091    -0.3076731470     0.4250727481
Bq         3.2866769838    -0.2581818000     0.4319430179
Bq         3.2848314585    -0.2086904530     0.4388132877
Bq         3.2829859333    -0.1591991060     0.4456835574
Bq         3.2811404080    -0.1097077589     0.4525538272
Bq         3.2792948827    -0.0602164119     0.4594240970
Bq         3.2774493575    -0.0107250649     0.4662943668
Bq         3.2756038322     0.0387662821     0.4731646366
Bq         3.2737583069     0.0882576291     0.4800349063
Bq         3.2719127817     0.1377489761     0.4869051761
Bq         3.2700672564     0.1872403232     0.4937754459
Bq         3.2682217311     0.2367316702     0.5006457157
Bq         3.2663762059     0.2862230172     0.5075159855
Bq         3.2645306806     0.3357143642     0.5143862552
Bq         3.2626851553     0.3852057112     0.5212565250
Bq         3.2608396301     0.4346970583     0.5281267948
Bq         3.2589941048     0.4841884053     0.5349970646
Bq         3.2571485795     0.5336797523     0.5418673344
Bq         3.2553030542     0.5831710993     0.5487376041
Bq         3.2534575290     0.6326624463     0.5556078739
Bq         3.2516120037     0.6821537933     0.5624781437
Bq         3.2497664784     0.7316451404     0.5693484135
Bq         3.2479209532     0.7811364874     0.5762186833
Bq         3.2460754279     0.8306278344     0.5830889530
Bq         3.2442299026     0.8801191814     0.5899592228
Bq         3.2423843774     0.9296105284     0.5968294926
Bq         3.2405388521     0.9791018754     0.6036997624
Bq         3.2386933268     1.0285932225     0.6105700322
Bq         3.2368478016     1.0780845695     0.6174403019
Bq         3.2350022763     1.1275759165     0.6243105717
Bq         3.2331567510     1.1770672635     0.6311808415
Bq         3.2313112258     1.2265586105     0.6380511113
Bq         3.2294657005     1.2760499576     0.6449213811
Bq         3.2276201752     1.3255413046     0.6517916508
Bq         3.2257746500     1.3750326516     0.6586619206
Bq         3.2239291247     1.4245239986     0.6655321904
Bq         3.2220835994     1.4740153456     0.6724024602
Bq         3.2202380742     1.5235066926     0.6792727299
Bq         3.2183925489     1.5729980397     0.6861429997
Bq         3.2165470236     1.6224893867     0.6930132695
Bq         3.2147014984     1.6719807337     0.6998835393
Bq         3.2128559731     1.7214720807     0.7067538091
Bq         3.2110104478     1.7709634277     0.7136240788
Bq         3.2091649226     1.8204547748     0.7204943486
Bq         3.2073193973     1.8699461218     0.7273646184
Bq         3.2054738720     1.9194374688     0.7342348882
Bq         3.2036283468     1.9689288158     0.7411051580
Bq         3.2017828215     2.0184201628     0.7479754277
Bq         3.1999372962     2.0679115098     0.7548456975
Bq         3.1980917709     2.1174028569     0.7617159673
Bq         3.1962462457     2.1668942039     0.7685862371
Bq         3.1944007204     2.2163855509     0.7754565069
Bq         3.4272413722    -2.7327491509     0.1014009198
Bq         3.4253958469    -2.6832578039     0.1082711896
Bq         3.4235503217    -2.6337664569     0.1151414594
Bq         3.4217047964    -2.5842751098     0.1220117292
Bq         3.4198592711    -2.5347837628     0.1288819989
Bq         3.4180137459    -2.4852924158     0.1357522687
Bq         3.4161682206    -2.4358010688     0.1426225385
Bq         3.4143226953    -2.3863097218     0.1494928083
Bq         3.4124771701    -2.3368183748     0.1563630780
Bq         3.4106316448    -2.2873270277     0.1632333478
Bq         3.4087861195    -2.2378356807     0.1701036176
Bq         3.4069405943    -2.1883443337     0.1769738874
Bq         3.4050950690    -2.1388529867     0.1838441572
Bq         3.4032495437    -2.0893616397     0.1907144269
Bq         3.4014040185    -2.0398702926     0.1975846967
Bq         3.3995584932    -1.9903789456     0.2044549665
Bq         3.3977129679    -1.9408875986     0.2113252363
Bq         3.3958674427    -1.8913962516     0.2181955061
Bq         3.3940219174    -1.8419049046     0.2250657758
Bq         3.3921763921    -1.7924135576     0.2319360456
Bq         3.3903308669    -1.7429222105     0.2388063154
Bq         3.3884853416    -1.6934308635     0.2456765852
Bq         3.3866398163    -1.6439395165     0.2525468550
Bq         3.3847942910    -1.5944481695     0.2594171247
Bq         3.3829487658    -1.5449568225     0.2662873945
Bq         3.3811032405    -1.4954654754     0.2731576643
Bq         3.3792577152    -1.4459741284     0.2800279341
Bq         3.3774121900    -1.3964827814     0.2868982039

1
2
3
4
5
6
7
8
9
10
11
12
13
14
15
16
17
18
19
20
21
22
23
24
25
26
27
28
29
30
31
32
33
34
35
36
37
38
39
40
41
42
43
44
45
46
47
48
49
50
51
52
53
54
55
56
57
58
59
60
61
62
63
64
65
66
67
68
69
70
71
72
73
74
75
76
77
78
79
80
81
82
83
84
85
86
87
88
89
90
91
92
93
94
95
96
97
98
99
100
101
102
103
104
105
106
107
108
109
110
111
112
113
114
115
116
117
118
119
120
121
122
123
124
125
126
127
128
129
130
131
132
133
134
135
136
137
138
139
140
141
142
143
144
145
146
147
148
149
150
151
152
153
154
155
156
157
158
159
160
161
162
163
164
165
166
167
168
169
170
171
172
173
174
175
176
177
178
179
180
181
182
183
184
185
186
187
188
189
190
191
192
193
194
195
196
197
198
199
200
201
202
203
204
205
206
207
208
209
210
211
212
213
214
215
216
217
218
219
220
221
222
223
224
225
226
227
228
229
230
231
232
233
234
235
236

