%nproc=8
%mem=1000MB
# rb3lyp/6-311+g** NMR geom=connectivity

Title

0 1
C    -4.0500558   -0.5771862    0.8136712
H    -5.0263804   -1.0082727    1.0024760
C    -3.9381552    0.6617804    0.2400876
H    -4.8252424    1.2338890   -0.0111295
C    -2.6768410    1.2433246    0.0057578
C    -1.4974121    0.5051527    0.2848253
C    -1.6508332   -0.7338728    0.9404026
H    -0.7713646   -1.2730967    1.2633753
C    -2.8898548   -1.2624035    1.1994307
H    -2.9683706   -2.2124563    1.7152676
C    -2.5773185    2.5963696   -0.4192930
H    -3.4870728    3.1412239   -0.6474055
C    -1.3741895    3.2147896   -0.4364030
H    -1.2997315    4.2742019   -0.6578144
C    -0.1719488    2.4994090   -0.1734588
C    -0.2043917    1.1018437    0.0192689
C     1.0513491    3.2042560   -0.0676222
H     1.0427344    4.2819499   -0.1896997
C     2.1942091    2.5487446    0.2579577
H     3.1168527    3.0912848    0.4334727
C     2.2216473    1.1336562    0.2934990
C     1.0486931    0.3945528    0.0302412
C     3.4483363    0.4614633    0.5573939
H     4.3095794    1.0606054    0.8334846
C     3.5427346   -0.8855926    0.4749463
H     4.4731467   -1.3939704    0.7038822
C     2.4490052   -1.6474447   -0.0196319
C     1.2150704   -1.0057258   -0.3013573
C     0.2531113   -1.7434440   -1.0216591
H    -0.6541356   -1.2535051   -1.3462847
C     0.4494193   -3.0628597   -1.3413779
H    -0.3083162   -3.5944309   -1.9054060
C     1.6251726   -3.7207967   -0.9552541
H     1.7670048   -4.7687404   -1.1927019
C     2.6109872   -3.0144177   -0.3183050
H     3.5525612   -3.4902813   -0.0646367
Bq        -0.7374641006    -1.9182800461     1.5018844992
Bq        -0.7373786344    -1.8732543497     1.4801433086
Bq        -0.7372931683    -1.8282286534     1.4584021181
Bq        -0.7372077021    -1.7832029571     1.4366609276
Bq        -0.7371222360    -1.7381772607     1.4149197371
Bq        -0.7370367699    -1.6931515644     1.3931785466
Bq        -0.7369513037    -1.6481258681     1.3714373561
Bq        -0.7368658376    -1.6031001717     1.3496961656
Bq        -0.7367803715    -1.5580744754     1.3279549750
Bq        -0.7366949053    -1.5130487791     1.3062137845
Bq        -0.7366094392    -1.4680230827     1.2844725940
Bq        -0.7365239731    -1.4229973864     1.2627314035
Bq        -0.7364385069    -1.3779716901     1.2409902130
Bq        -0.7363530408    -1.3329459937     1.2192490225
Bq        -0.7362675746    -1.2879202974     1.1975078319
Bq        -0.7361821085    -1.2428946011     1.1757666414
Bq        -0.7360966424    -1.1978689047     1.1540254509
Bq        -0.7360111762    -1.1528432084     1.1322842604
Bq        -0.7359257101    -1.1078175120     1.1105430699
Bq        -0.7358402440    -1.0627918157     1.0888018794
Bq        -0.7357547778    -1.0177661194     1.0670606888
Bq        -0.7356693117    -0.9727404230     1.0453194983
Bq        -0.7355838455    -0.9277147267     1.0235783078
Bq        -0.7354983794    -0.8826890304     1.0018371173
Bq        -0.7354129133    -0.8376633340     0.9800959268
Bq        -0.7353274471    -0.7926376377     0.9583547363
Bq        -0.7352419810    -0.7476119414     0.9366135457
Bq        -0.7351565149    -0.7025862450     0.9148723552
Bq        -0.7350710487    -0.6575605487     0.8931311647
Bq        -0.7349855826    -0.6125348524     0.8713899742
Bq        -0.7349001164    -0.5675091560     0.8496487837
Bq        -0.7348146503    -0.5224834597     0.8279075932
Bq        -0.7347291842    -0.4774577634     0.8061664026
Bq        -0.7346437180    -0.4324320670     0.7844252121
Bq        -0.7345582519    -0.3874063707     0.7626840216
Bq        -0.7344727858    -0.3423806743     0.7409428311
Bq        -0.7343873196    -0.2973549780     0.7192016406
Bq        -0.7343018535    -0.2523292817     0.6974604501
Bq        -0.7342163873    -0.2073035853     0.6757192595
Bq        -0.7341309212    -0.1622778890     0.6539780690
Bq        -0.7340454551    -0.1172521927     0.6322368785
Bq        -0.7339599889    -0.0722264963     0.6104956880
Bq        -0.7338745228    -0.0272008000     0.5887544975
Bq        -0.7337890567     0.0178248963     0.5670133070
Bq        -0.7337035905     0.0628505927     0.5452721164
Bq        -0.7336181244     0.1078762890     0.5235309259
Bq        -0.7335326582     0.1529019853     0.5017897354
Bq        -0.7334471921     0.1979276817     0.4800485449
Bq        -0.7333617260     0.2429533780     0.4583073544
Bq        -0.7332762598     0.2879790743     0.4365661639
Bq        -0.7331907937     0.3330047707     0.4148249734
Bq        -0.7331053276     0.3780304670     0.3930837828
Bq        -0.7330198614     0.4230561634     0.3713425923
Bq        -0.7329343953     0.4680818597     0.3496014018
Bq        -0.7328489291     0.5131075560     0.3278602113
Bq        -0.7327634630     0.5581332524     0.3061190208
Bq        -0.7326779969     0.6031589487     0.2843778303
Bq        -0.7325925307     0.6481846450     0.2626366397
Bq        -0.7325070646     0.6932103414     0.2408954492
Bq        -0.7324215985     0.7382360377     0.2191542587
Bq        -0.7323361323     0.7832617340     0.1974130682
Bq        -0.7322506662     0.8282874304     0.1756718777
Bq        -0.7321652000     0.8733131267     0.1539306872
Bq        -0.7320797339     0.9183388230     0.1321894966
Bq        -0.7319942678     0.9633645194     0.1104483061
Bq        -0.7319088016     1.0083902157     0.0887071156
Bq        -0.7318233355     1.0534159120     0.0669659251
Bq        -0.7317378694     1.0984416084     0.0452247346
Bq        -0.7316524032     1.1434673047     0.0234835441
Bq        -0.7315669371     1.1884930011     0.0017423535
Bq        -0.7314814709     1.2335186974    -0.0199988370
Bq        -0.7313960048     1.2785443937    -0.0417400275
Bq        -0.7313105387     1.3235700901    -0.0634812180
Bq        -0.7312250725     1.3685957864    -0.0852224085
Bq        -0.7311396064     1.4136214827    -0.1069635990
Bq        -0.7310541403     1.4586471791    -0.1287047896
Bq        -0.7309686741     1.5036728754    -0.1504459801
Bq        -0.7308832080     1.5486985717    -0.1721871706
Bq        -0.7307977418     1.5937242681    -0.1939283611
Bq        -0.7307122757     1.6387499644    -0.2156695516
Bq        -0.7306268096     1.6837756607    -0.2374107421
Bq        -0.7305413434     1.7288013571    -0.2591519327
Bq        -0.7304558773     1.7738270534    -0.2808931232
Bq        -0.7303704112     1.8188527497    -0.3026343137
Bq        -0.7302849450     1.8638784461    -0.3243755042
Bq        -0.7301994789     1.9089041424    -0.3461166947
Bq        -0.7301140127     1.9539298388    -0.3678578852
Bq        -0.7300285466     1.9989555351    -0.3895990757
Bq        -0.7299430805     2.0439812314    -0.4113402663
Bq        -0.7298576143     2.0890069278    -0.4330814568
Bq        -0.7297721482     2.1340326241    -0.4548226473
Bq        -0.7296866821     2.1790583204    -0.4765638378
Bq        -0.7296012159     2.2240840168    -0.4983050283
Bq        -0.6881482160    -2.2784856168     1.6760105753
Bq        -0.6880627499    -2.2334599204     1.6542693847
Bq        -0.6879772837    -2.1884342241     1.6325281942
Bq        -0.6878918176    -2.1434085278     1.6107870037
Bq        -0.6878063514    -2.0983828314     1.5890458132
Bq        -0.6877208853    -2.0533571351     1.5673046227
Bq        -0.6876354192    -2.0083314388     1.5455634322
Bq        -0.6875499530    -1.9633057424     1.5238222417
Bq        -0.6874644869    -1.9182800461     1.5020810511
Bq        -0.6873790208    -1.8732543497     1.4803398606
Bq        -0.6872935546    -1.8282286534     1.4585986701
Bq        -0.6872080885    -1.7832029571     1.4368574796
Bq        -0.6871226223    -1.7381772607     1.4151162891
Bq        -0.6870371562    -1.6931515644     1.3933750986
Bq        -0.6869516901    -1.6481258681     1.3716339080
Bq        -0.6868662239    -1.6031001717     1.3498927175
Bq        -0.6867807578    -1.5580744754     1.3281515270
Bq        -0.6866952917    -1.5130487791     1.3064103365
Bq        -0.6866098255    -1.4680230827     1.2846691460
Bq        -0.6865243594    -1.4229973864     1.2629279555
Bq        -0.6864388932    -1.3779716901     1.2411867649
Bq        -0.6863534271    -1.3329459937     1.2194455744
Bq        -0.6862679610    -1.2879202974     1.1977043839
Bq        -0.6861824948    -1.2428946011     1.1759631934
Bq        -0.6860970287    -1.1978689047     1.1542220029
Bq        -0.6860115626    -1.1528432084     1.1324808124
Bq        -0.6859260964    -1.1078175120     1.1107396218
Bq        -0.6858406303    -1.0627918157     1.0889984313
Bq        -0.6857551641    -1.0177661194     1.0672572408
Bq        -0.6856696980    -0.9727404230     1.0455160503
Bq        -0.6855842319    -0.9277147267     1.0237748598
Bq        -0.6854987657    -0.8826890304     1.0020336693
Bq        -0.6854132996    -0.8376633340     0.9802924787
Bq        -0.6853278335    -0.7926376377     0.9585512882
Bq        -0.6852423673    -0.7476119414     0.9368100977
Bq        -0.6851569012    -0.7025862450     0.9150689072
Bq        -0.6850714350    -0.6575605487     0.8933277167
Bq        -0.6849859689    -0.6125348524     0.8715865262
Bq        -0.6849005028    -0.5675091560     0.8498453356
Bq        -0.6848150366    -0.5224834597     0.8281041451
Bq        -0.6847295705    -0.4774577634     0.8063629546
Bq        -0.6846441044    -0.4324320670     0.7846217641
Bq        -0.6845586382    -0.3874063707     0.7628805736
Bq        -0.6844731721    -0.3423806743     0.7411393831
Bq        -0.6843877059    -0.2973549780     0.7193981926
Bq        -0.6843022398    -0.2523292817     0.6976570020
Bq        -0.6842167737    -0.2073035853     0.6759158115
Bq        -0.6841313075    -0.1622778890     0.6541746210
Bq        -0.6840458414    -0.1172521927     0.6324334305
Bq        -0.6839603753    -0.0722264963     0.6106922400
Bq        -0.6838749091    -0.0272008000     0.5889510495
Bq        -0.6837894430     0.0178248963     0.5672098589
Bq        -0.6837039768     0.0628505927     0.5454686684
Bq        -0.6836185107     0.1078762890     0.5237274779
Bq        -0.6835330446     0.1529019853     0.5019862874
Bq        -0.6834475784     0.1979276817     0.4802450969
Bq        -0.6833621123     0.2429533780     0.4585039064
Bq        -0.6832766462     0.2879790743     0.4367627158
Bq        -0.6831911800     0.3330047707     0.4150215253
Bq        -0.6831057139     0.3780304670     0.3932803348
Bq        -0.6830202477     0.4230561634     0.3715391443
Bq        -0.6829347816     0.4680818597     0.3497979538
Bq        -0.6828493155     0.5131075560     0.3280567633
Bq        -0.6827638493     0.5581332524     0.3063155727
Bq        -0.6826783832     0.6031589487     0.2845743822
Bq        -0.6825929171     0.6481846450     0.2628331917
Bq        -0.6825074509     0.6932103414     0.2410920012
Bq        -0.6824219848     0.7382360377     0.2193508107
Bq        -0.6823365186     0.7832617340     0.1976096202
Bq        -0.6822510525     0.8282874304     0.1758684296
Bq        -0.6821655864     0.8733131267     0.1541272391
Bq        -0.6820801202     0.9183388230     0.1323860486
Bq        -0.6819946541     0.9633645194     0.1106448581
Bq        -0.6819091880     1.0083902157     0.0889036676
Bq        -0.6818237218     1.0534159120     0.0671624771
Bq        -0.6817382557     1.0984416084     0.0454212865
Bq        -0.6816527895     1.1434673047     0.0236800960
Bq        -0.6815673234     1.1884930011     0.0019389055
Bq        -0.6814818573     1.2335186974    -0.0198022850
Bq        -0.6813963911     1.2785443937    -0.0415434755
Bq        -0.6813109250     1.3235700901    -0.0632846660
Bq        -0.6812254589     1.3685957864    -0.0850258566
Bq        -0.6811399927     1.4136214827    -0.1067670471
Bq        -0.6810545266     1.4586471791    -0.1285082376
Bq        -0.6809690605     1.5036728754    -0.1502494281
Bq        -0.6808835943     1.5486985717    -0.1719906186
Bq        -0.6807981282     1.5937242681    -0.1937318091
Bq        -0.6807126620     1.6387499644    -0.2154729996
Bq        -0.6806271959     1.6837756607    -0.2372141902
Bq        -0.6805417298     1.7288013571    -0.2589553807
Bq        -0.6804562636     1.7738270534    -0.2806965712
Bq        -0.6803707975     1.8188527497    -0.3024377617
Bq        -0.6802853314     1.8638784461    -0.3241789522
Bq        -0.6801998652     1.9089041424    -0.3459201427
Bq        -0.6801143991     1.9539298388    -0.3676613333
Bq        -0.6800289329     1.9989555351    -0.3894025238
Bq        -0.6799434668     2.0439812314    -0.4111437143
Bq        -0.6798580007     2.0890069278    -0.4328849048
Bq        -0.6797725345     2.1340326241    -0.4546260953
Bq        -0.6796870684     2.1790583204    -0.4763672858
Bq        -0.6796016023     2.2240840168    -0.4981084764
Bq        -0.6381486023    -2.2784856168     1.6762071272
Bq        -0.6380631362    -2.2334599204     1.6544659367
Bq        -0.6379776700    -2.1884342241     1.6327247462
Bq        -0.6378922039    -2.1434085278     1.6109835557
Bq        -0.6378067378    -2.0983828314     1.5892423652
Bq        -0.6377212716    -2.0533571351     1.5675011747

1
2
3
4
5
6
7
8
9
10
11
12
13
14
15
16
17
18
19
20
21
22
23
24
25
26
27
28
29
30
31
32
33
34
35
36
37
38
39
40
41
42
43
44
45
46
47
48
49
50
51
52
53
54
55
56
57
58
59
60
61
62
63
64
65
66
67
68
69
70
71
72
73
74
75
76
77
78
79
80
81
82
83
84
85
86
87
88
89
90
91
92
93
94
95
96
97
98
99
100
101
102
103
104
105
106
107
108
109
110
111
112
113
114
115
116
117
118
119
120
121
122
123
124
125
126
127
128
129
130
131
132
133
134
135
136
137
138
139
140
141
142
143
144
145
146
147
148
149
150
151
152
153
154
155
156
157
158
159
160
161
162
163
164
165
166
167
168
169
170
171
172
173
174
175
176
177
178
179
180
181
182
183
184
185
186
187
188
189
190
191
192
193
194
195
196
197
198
199
200
201
202
203
204
205
206
207
208
209
210
211
212
213
214
215
216
217
218
219
220
221
222
223
224
225
226
227
228
229
230
231
232
233
234
235
236

