%nproc=8
%mem=1000MB
# rb3lyp/6-311+g** NMR geom=connectivity

Title

0 1
C    -4.0500558   -0.5771862    0.8136712
H    -5.0263804   -1.0082727    1.0024760
C    -3.9381552    0.6617804    0.2400876
H    -4.8252424    1.2338890   -0.0111295
C    -2.6768410    1.2433246    0.0057578
C    -1.4974121    0.5051527    0.2848253
C    -1.6508332   -0.7338728    0.9404026
H    -0.7713646   -1.2730967    1.2633753
C    -2.8898548   -1.2624035    1.1994307
H    -2.9683706   -2.2124563    1.7152676
C    -2.5773185    2.5963696   -0.4192930
H    -3.4870728    3.1412239   -0.6474055
C    -1.3741895    3.2147896   -0.4364030
H    -1.2997315    4.2742019   -0.6578144
C    -0.1719488    2.4994090   -0.1734588
C    -0.2043917    1.1018437    0.0192689
C     1.0513491    3.2042560   -0.0676222
H     1.0427344    4.2819499   -0.1896997
C     2.1942091    2.5487446    0.2579577
H     3.1168527    3.0912848    0.4334727
C     2.2216473    1.1336562    0.2934990
C     1.0486931    0.3945528    0.0302412
C     3.4483363    0.4614633    0.5573939
H     4.3095794    1.0606054    0.8334846
C     3.5427346   -0.8855926    0.4749463
H     4.4731467   -1.3939704    0.7038822
C     2.4490052   -1.6474447   -0.0196319
C     1.2150704   -1.0057258   -0.3013573
C     0.2531113   -1.7434440   -1.0216591
H    -0.6541356   -1.2535051   -1.3462847
C     0.4494193   -3.0628597   -1.3413779
H    -0.3083162   -3.5944309   -1.9054060
C     1.6251726   -3.7207967   -0.9552541
H     1.7670048   -4.7687404   -1.1927019
C     2.6109872   -3.0144177   -0.3183050
H     3.5525612   -3.4902813   -0.0646367
Bq        -1.8627715597     2.2479075278    -0.2358386051
Bq        -1.8622850826     2.2963774437    -0.2481036198
Bq        -1.8617986055     2.3448473597    -0.2603686345
Bq        -1.8613121283     2.3933172757    -0.2726336492
Bq        -1.8608256512     2.4417871916    -0.2848986640
Bq        -1.8603391741     2.4902571076    -0.2971636787
Bq        -1.8598526970     2.5387270236    -0.3094286934
Bq        -1.8593662199     2.5871969395    -0.3216937081
Bq        -1.8588797428     2.6356668555    -0.3339587228
Bq        -1.8583932657     2.6841367715    -0.3462237375
Bq        -1.8579067886     2.7326066875    -0.3584887522
Bq        -1.8574203114     2.7810766034    -0.3707537669
Bq        -1.8569338343     2.8295465194    -0.3830187817
Bq        -1.8564473572     2.8780164354    -0.3952837964
Bq        -1.8559608801     2.9264863513    -0.4075488111
Bq        -1.8554744030     2.9749562673    -0.4198138258
Bq        -1.8549879259     3.0234261833    -0.4320788405
Bq        -1.8545014488     3.0718960992    -0.4443438552
Bq        -1.8540149717     3.1203660152    -0.4566088699
Bq        -1.8535284946     3.1688359312    -0.4688738847
Bq        -1.8530420174     3.2173058471    -0.4811388994
Bq        -1.8525555403     3.2657757631    -0.4934039141
Bq        -1.8520690632     3.3142456791    -0.5056689288
Bq        -1.8515825861     3.3627155951    -0.5179339435
Bq        -1.8510961090     3.4111855110    -0.5301989582
Bq        -1.8506096319     3.4596554270    -0.5424639729
Bq        -1.8501231548     3.5081253430    -0.5547289876
Bq        -1.8496366777     3.5565952589    -0.5669940024
Bq        -1.8491502005     3.6050651749    -0.5792590171
Bq        -1.8486637234     3.6535350909    -0.5915240318
Bq        -1.8481772463     3.7020050068    -0.6037890465
Bq        -1.8476907692     3.7504749228    -0.6160540612
Bq        -1.8472042921     3.7989448388    -0.6283190759
Bq        -1.8467178150     3.8474147548    -0.6405840906
Bq        -1.8462313379     3.8958846707    -0.6528491054
Bq        -1.8457448608     3.9443545867    -0.6651141201
Bq        -1.8452583836     3.9928245027    -0.6773791348
Bq        -1.8447719065     4.0412944186    -0.6896441495
Bq        -1.8442854294     4.0897643346    -0.7019091642
Bq        -1.8437989523     4.1382342506    -0.7141741789
Bq        -1.8433124752     4.1867041665    -0.7264391936
Bq        -1.8428259981     4.2351740825    -0.7387042084
Bq        -1.8423395210     4.2836439985    -0.7509692231
Bq        -1.8410265163    -0.5633475985     0.4775138802
Bq        -1.8405400392    -0.5148776825     0.4652488655
Bq        -1.8400535621    -0.4664077665     0.4529838508
Bq        -1.8395670849    -0.4179378506     0.4407188361
Bq        -1.8390806078    -0.3694679346     0.4284538214
Bq        -1.8385941307    -0.3209980186     0.4161888067
Bq        -1.8381076536    -0.2725281027     0.4039237919
Bq        -1.8376211765    -0.2240581867     0.3916587772
Bq        -1.8371346994    -0.1755882707     0.3793937625
Bq        -1.8366482223    -0.1271183548     0.3671287478
Bq        -1.8361617452    -0.0786484388     0.3548637331
Bq        -1.8356752680    -0.0301785228     0.3425987184
Bq        -1.8351887909     0.0182913932     0.3303337037
Bq        -1.8347023138     0.0667613091     0.3180686889
Bq        -1.8342158367     0.1152312251     0.3058036742
Bq        -1.8337293596     0.1637011411     0.2935386595
Bq        -1.8332428825     0.2121710570     0.2812736448
Bq        -1.8327564054     0.2606409730     0.2690086301
Bq        -1.8322699283     0.3091108890     0.2567436154
Bq        -1.8317834511     0.3575808049     0.2444786007
Bq        -1.8312969740     0.4060507209     0.2322135860
Bq        -1.8308104969     0.4545206369     0.2199485712
Bq        -1.8303240198     0.5029905529     0.2076835565
Bq        -1.8298375427     0.5514604688     0.1954185418
Bq        -1.8293510656     0.5999303848     0.1831535271
Bq        -1.8288645885     0.6484003008     0.1708885124
Bq        -1.8283781114     0.6968702167     0.1586234977
Bq        -1.8278916342     0.7453401327     0.1463584830
Bq        -1.8274051571     0.7938100487     0.1340934682
Bq        -1.8269186800     0.8422799646     0.1218284535
Bq        -1.8264322029     0.8907498806     0.1095634388
Bq        -1.8259457258     0.9392197966     0.0972984241
Bq        -1.8254592487     0.9876897125     0.0850334094
Bq        -1.8249727716     1.0361596285     0.0727683947
Bq        -1.8244862945     1.0846295445     0.0605033800
Bq        -1.8239998173     1.1330994605     0.0482383652
Bq        -1.8235133402     1.1815693764     0.0359733505
Bq        -1.8230268631     1.2300392924     0.0237083358
Bq        -1.8225403860     1.2785092084     0.0114433211
Bq        -1.8220539089     1.3269791243    -0.0008216936
Bq        -1.8215674318     1.3754490403    -0.0130867083
Bq        -1.8210809547     1.4239189563    -0.0253517230
Bq        -1.8205944776     1.4723888722    -0.0376167377
Bq        -1.8201080005     1.5208587882    -0.0498817525
Bq        -1.8196215233     1.5693287042    -0.0621467672
Bq        -1.8191350462     1.6177986202    -0.0744117819
Bq        -1.8186485691     1.6662685361    -0.0866767966
Bq        -1.8181620920     1.7147384521    -0.0989418113
Bq        -1.8176756149     1.7632083681    -0.1112068260
Bq        -1.8171891378     1.8116782840    -0.1234718407
Bq        -1.8167026607     1.8601482000    -0.1357368555
Bq        -1.8162161836     1.9086181160    -0.1480018702
Bq        -1.8157297064     1.9570880319    -0.1602668849
Bq        -1.8152432293     2.0055579479    -0.1725318996
Bq        -1.8147567522     2.0540278639    -0.1847969143
Bq        -1.8142702751     2.1024977798    -0.1970619290
Bq        -1.8137837980     2.1509676958    -0.2093269437
Bq        -1.8132973209     2.1994376118    -0.2215919585
Bq        -1.8128108438     2.2479075278    -0.2338569732
Bq        -1.8123243667     2.2963774437    -0.2461219879
Bq        -1.8118378895     2.3448473597    -0.2583870026
Bq        -1.8113514124     2.3933172757    -0.2706520173
Bq        -1.8108649353     2.4417871916    -0.2829170320
Bq        -1.8103784582     2.4902571076    -0.2951820467
Bq        -1.8098919811     2.5387270236    -0.3074470614
Bq        -1.8094055040     2.5871969395    -0.3197120762
Bq        -1.8089190269     2.6356668555    -0.3319770909
Bq        -1.8084325498     2.6841367715    -0.3442421056
Bq        -1.8079460726     2.7326066875    -0.3565071203
Bq        -1.8074595955     2.7810766034    -0.3687721350
Bq        -1.8069731184     2.8295465194    -0.3810371497
Bq        -1.8064866413     2.8780164354    -0.3933021644
Bq        -1.8060001642     2.9264863513    -0.4055671792
Bq        -1.8055136871     2.9749562673    -0.4178321939
Bq        -1.8050272100     3.0234261833    -0.4300972086
Bq        -1.8045407329     3.0718960992    -0.4423622233
Bq        -1.8040542557     3.1203660152    -0.4546272380
Bq        -1.8035677786     3.1688359312    -0.4668922527
Bq        -1.8030813015     3.2173058471    -0.4791572674
Bq        -1.8025948244     3.2657757631    -0.4914222821
Bq        -1.8021083473     3.3142456791    -0.5036872969
Bq        -1.8016218702     3.3627155951    -0.5159523116
Bq        -1.8011353931     3.4111855110    -0.5282173263
Bq        -1.8006489160     3.4596554270    -0.5404823410
Bq        -1.8001624388     3.5081253430    -0.5527473557
Bq        -1.7996759617     3.5565952589    -0.5650123704
Bq        -1.7991894846     3.6050651749    -0.5772773851
Bq        -1.7987030075     3.6535350909    -0.5895423999
Bq        -1.7982165304     3.7020050068    -0.6018074146
Bq        -1.7977300533     3.7504749228    -0.6140724293
Bq        -1.7972435762     3.7989448388    -0.6263374440
Bq        -1.7967570991     3.8474147548    -0.6386024587
Bq        -1.7962706220     3.8958846707    -0.6508674734
Bq        -1.7957841448     3.9443545867    -0.6631324881
Bq        -1.7952976677     3.9928245027    -0.6753975029
Bq        -1.7948111906     4.0412944186    -0.6876625176
Bq        -1.7943247135     4.0897643346    -0.6999275323
Bq        -1.7938382364     4.1382342506    -0.7121925470
Bq        -1.7933517593     4.1867041665    -0.7244575617
Bq        -1.7928652822     4.2351740825    -0.7367225764
Bq        -1.7923788051     4.2836439985    -0.7489875911
Bq        -1.7910658004    -0.5633475985     0.4794955122
Bq        -1.7905793232    -0.5148776825     0.4672304974
Bq        -1.7900928461    -0.4664077665     0.4549654827
Bq        -1.7896063690    -0.4179378506     0.4427004680
Bq        -1.7891198919    -0.3694679346     0.4304354533
Bq        -1.7886334148    -0.3209980186     0.4181704386
Bq        -1.7881469377    -0.2725281027     0.4059054239
Bq        -1.7876604606    -0.2240581867     0.3936404092
Bq        -1.7871739835    -0.1755882707     0.3813753944
Bq        -1.7866875063    -0.1271183548     0.3691103797
Bq        -1.7862010292    -0.0786484388     0.3568453650
Bq        -1.7857145521    -0.0301785228     0.3445803503
Bq        -1.7852280750     0.0182913932     0.3323153356
Bq        -1.7847415979     0.0667613091     0.3200503209
Bq        -1.7842551208     0.1152312251     0.3077853062
Bq        -1.7837686437     0.1637011411     0.2955202915
Bq        -1.7832821666     0.2121710570     0.2832552767
Bq        -1.7827956895     0.2606409730     0.2709902620
Bq        -1.7823092123     0.3091108890     0.2587252473
Bq        -1.7818227352     0.3575808049     0.2464602326
Bq        -1.7813362581     0.4060507209     0.2341952179
Bq        -1.7808497810     0.4545206369     0.2219302032
Bq        -1.7803633039     0.5029905529     0.2096651885
Bq        -1.7798768268     0.5514604688     0.1974001737
Bq        -1.7793903497     0.5999303848     0.1851351590
Bq        -1.7789038726     0.6484003008     0.1728701443
Bq        -1.7784173954     0.6968702167     0.1606051296
Bq        -1.7779309183     0.7453401327     0.1483401149
Bq        -1.7774444412     0.7938100487     0.1360751002
Bq        -1.7769579641     0.8422799646     0.1238100855
Bq        -1.7764714870     0.8907498806     0.1115450707
Bq        -1.7759850099     0.9392197966     0.0992800560
Bq        -1.7754985328     0.9876897125     0.0870150413
Bq        -1.7750120557     1.0361596285     0.0747500266
Bq        -1.7745255785     1.0846295445     0.0624850119
Bq        -1.7740391014     1.1330994605     0.0502199972
Bq        -1.7735526243     1.1815693764     0.0379549825
Bq        -1.7730661472     1.2300392924     0.0256899678
Bq        -1.7725796701     1.2785092084     0.0134249530
Bq        -1.7720931930     1.3269791243     0.0011599383
Bq        -1.7716067159     1.3754490403    -0.0111050764
Bq        -1.7711202388     1.4239189563    -0.0233700911
Bq        -1.7706337616     1.4723888722    -0.0356351058
Bq        -1.7701472845     1.5208587882    -0.0479001205
Bq        -1.7696608074     1.5693287042    -0.0601651352
Bq        -1.7691743303     1.6177986202    -0.0724301500
Bq        -1.7686878532     1.6662685361    -0.0846951647
Bq        -1.7682013761     1.7147384521    -0.0969601794
Bq        -1.7677148990     1.7632083681    -0.1092251941
Bq        -1.7672284219     1.8116782840    -0.1214902088
Bq        -1.7667419447     1.8601482000    -0.1337552235
Bq        -1.7662554676     1.9086181160    -0.1460202382
Bq        -1.7657689905     1.9570880319    -0.1582852530
Bq        -1.7652825134     2.0055579479    -0.1705502677
Bq        -1.7647960363     2.0540278639    -0.1828152824
Bq        -1.7643095592     2.1024977798    -0.1950802971

1
2
3
4
5
6
7
8
9
10
11
12
13
14
15
16
17
18
19
20
21
22
23
24
25
26
27
28
29
30
31
32
33
34
35
36
37
38
39
40
41
42
43
44
45
46
47
48
49
50
51
52
53
54
55
56
57
58
59
60
61
62
63
64
65
66
67
68
69
70
71
72
73
74
75
76
77
78
79
80
81
82
83
84
85
86
87
88
89
90
91
92
93
94
95
96
97
98
99
100
101
102
103
104
105
106
107
108
109
110
111
112
113
114
115
116
117
118
119
120
121
122
123
124
125
126
127
128
129
130
131
132
133
134
135
136
137
138
139
140
141
142
143
144
145
146
147
148
149
150
151
152
153
154
155
156
157
158
159
160
161
162
163
164
165
166
167
168
169
170
171
172
173
174
175
176
177
178
179
180
181
182
183
184
185
186
187
188
189
190
191
192
193
194
195
196
197
198
199
200
201
202
203
204
205
206
207
208
209
210
211
212
213
214
215
216
217
218
219
220
221
222
223
224
225
226
227
228
229
230
231
232
233
234
235
236

