%nproc=8
%mem=1000MB
# rb3lyp/6-311+g** NMR geom=connectivity

Title

0 1
C    -4.0500558   -0.5771862    0.8136712
H    -5.0263804   -1.0082727    1.0024760
C    -3.9381552    0.6617804    0.2400876
H    -4.8252424    1.2338890   -0.0111295
C    -2.6768410    1.2433246    0.0057578
C    -1.4974121    0.5051527    0.2848253
C    -1.6508332   -0.7338728    0.9404026
H    -0.7713646   -1.2730967    1.2633753
C    -2.8898548   -1.2624035    1.1994307
H    -2.9683706   -2.2124563    1.7152676
C    -2.5773185    2.5963696   -0.4192930
H    -3.4870728    3.1412239   -0.6474055
C    -1.3741895    3.2147896   -0.4364030
H    -1.2997315    4.2742019   -0.6578144
C    -0.1719488    2.4994090   -0.1734588
C    -0.2043917    1.1018437    0.0192689
C     1.0513491    3.2042560   -0.0676222
H     1.0427344    4.2819499   -0.1896997
C     2.1942091    2.5487446    0.2579577
H     3.1168527    3.0912848    0.4334727
C     2.2216473    1.1336562    0.2934990
C     1.0486931    0.3945528    0.0302412
C     3.4483363    0.4614633    0.5573939
H     4.3095794    1.0606054    0.8334846
C     3.5427346   -0.8855926    0.4749463
H     4.4731467   -1.3939704    0.7038822
C     2.4490052   -1.6474447   -0.0196319
C     1.2150704   -1.0057258   -0.3013573
C     0.2531113   -1.7434440   -1.0216591
H    -0.6541356   -1.2535051   -1.3462847
C     0.4494193   -3.0628597   -1.3413779
H    -0.3083162   -3.5944309   -1.9054060
C     1.6251726   -3.7207967   -0.9552541
H     1.7670048   -4.7687404   -1.1927019
C     2.6109872   -3.0144177   -0.3183050
H     3.5525612   -3.4902813   -0.0646367
Bq         3.0211554436    -3.9080691567    -0.4063520491
Bq         3.0156522070    -3.8598726654    -0.3942354239
Bq         3.0101489703    -3.8116761740    -0.3821187986
Bq         3.0046457336    -3.7634796827    -0.3700021734
Bq         2.9991424969    -3.7152831913    -0.3578855482
Bq         2.9936392602    -3.6670866999    -0.3457689229
Bq         2.9881360235    -3.6188902086    -0.3336522977
Bq         2.9826327868    -3.5706937172    -0.3215356725
Bq         2.9771295502    -3.5224972259    -0.3094190473
Bq         2.9716263135    -3.4743007345    -0.2973024220
Bq         2.9661230768    -3.4261042432    -0.2851857968
Bq         2.9606198401    -3.3779077518    -0.2730691716
Bq         2.9551166034    -3.3297112605    -0.2609525463
Bq         2.9496133667    -3.2815147691    -0.2488359211
Bq         2.9441101300    -3.2333182777    -0.2367192959
Bq         2.9386068934    -3.1851217864    -0.2246026707
Bq         2.9331036567    -3.1369252950    -0.2124860454
Bq         2.9276004200    -3.0887288037    -0.2003694202
Bq         2.9220971833    -3.0405323123    -0.1882527950
Bq         2.9165939466    -2.9923358210    -0.1761361697
Bq         2.9110907099    -2.9441393296    -0.1640195445
Bq         2.9055874732    -2.8959428383    -0.1519029193
Bq         2.9000842366    -2.8477463469    -0.1397862941
Bq         2.8945809999    -2.7995498555    -0.1276696688
Bq         2.8890777632    -2.7513533642    -0.1155530436
Bq         2.8835745265    -2.7031568728    -0.1034364184
Bq         2.8780712898    -2.6549603815    -0.0913197931
Bq         2.8725680531    -2.6067638901    -0.0792031679
Bq         2.8670648164    -2.5585673988    -0.0670865427
Bq         2.8615615798    -2.5103709074    -0.0549699174
Bq         2.8560583431    -2.4621744160    -0.0428532922
Bq         2.8505551064    -2.4139779247    -0.0307366670
Bq         2.8450518697    -2.3657814333    -0.0186200418
Bq         2.8395486330    -2.3175849420    -0.0065034165
Bq         2.8340453963    -2.2693884506     0.0056132087
Bq         2.8285421596    -2.2211919593     0.0177298339
Bq         2.8230389229    -2.1729954679     0.0298464592
Bq         2.8175356863    -2.1247989766     0.0419630844
Bq         2.8120324496    -2.0766024852     0.0540797096
Bq         2.8065292129    -2.0284059938     0.0661963348
Bq         2.8010259762    -1.9802095025     0.0783129601
Bq         2.7955227395    -1.9320130111     0.0904295853
Bq         2.7900195028    -1.8838165198     0.1025462105
Bq         2.7845162661    -1.8356200284     0.1146628358
Bq         2.7790130295    -1.7874235371     0.1267794610
Bq         2.7735097928    -1.7392270457     0.1388960862
Bq         2.7680065561    -1.6910305543     0.1510127114
Bq         2.7625033194    -1.6428340630     0.1631293367
Bq         2.7570000827    -1.5946375716     0.1752459619
Bq         2.7514968460    -1.5464410803     0.1873625871
Bq         2.7459936093    -1.4982445889     0.1994792124
Bq         2.7404903727    -1.4500480976     0.2115958376
Bq         2.7349871360    -1.4018516062     0.2237124628
Bq         2.7294838993    -1.3536551149     0.2358290880
Bq         2.7239806626    -1.3054586235     0.2479457133
Bq         2.7184774259    -1.2572621321     0.2600623385
Bq         2.7129741892    -1.2090656408     0.2721789637
Bq         2.7074709525    -1.1608691494     0.2842955890
Bq         2.7019677159    -1.1126726581     0.2964122142
Bq         2.6964644792    -1.0644761667     0.3085288394
Bq         2.6909612425    -1.0162796754     0.3206454647
Bq         2.6854580058    -0.9680831840     0.3327620899
Bq         2.6799547691    -0.9198866927     0.3448787151
Bq         2.6744515324    -0.8716902013     0.3569953403
Bq         2.6689482957    -0.8234937099     0.3691119656
Bq         2.6634450591    -0.7752972186     0.3812285908
Bq         2.6579418224    -0.7271007272     0.3933452160
Bq         2.6524385857    -0.6789042359     0.4054618413
Bq         2.6469353490    -0.6307077445     0.4175784665
Bq         2.6414321123    -0.5825112532     0.4296950917
Bq         2.6359288756    -0.5343147618     0.4418117169
Bq         2.6304256389    -0.4861182704     0.4539283422
Bq         2.6249224023    -0.4379217791     0.4660449674
Bq         2.6194191656    -0.3897252877     0.4781615926
Bq         2.6139159289    -0.3415287964     0.4902782179
Bq         2.6084126922    -0.2933323050     0.5023948431
Bq         2.6029094555    -0.2451358137     0.5145114683
Bq         2.5974062188    -0.1969393223     0.5266280935
Bq         2.5919029821    -0.1487428310     0.5387447188
Bq         2.5863997454    -0.1005463396     0.5508613440
Bq         2.5808965088    -0.0523498482     0.5629779692
Bq         2.5753932721    -0.0041533569     0.5750945945
Bq         2.5698900354     0.0440431345     0.5872112197
Bq         3.1657381407    -4.7756060011    -0.6037746094
Bq         3.1602349040    -4.7274095098    -0.5916579842
Bq         3.1547316673    -4.6792130184    -0.5795413589
Bq         3.1492284306    -4.6310165271    -0.5674247337
Bq         3.1437251939    -4.5828200357    -0.5553081085
Bq         3.1382219572    -4.5346235444    -0.5431914833
Bq         3.1327187205    -4.4864270530    -0.5310748580
Bq         3.1272154838    -4.4382305616    -0.5189582328
Bq         3.1217122472    -4.3900340703    -0.5068416076
Bq         3.1162090105    -4.3418375789    -0.4947249823
Bq         3.1107057738    -4.2936410876    -0.4826083571
Bq         3.1052025371    -4.2454445962    -0.4704917319
Bq         3.0996993004    -4.1972481049    -0.4583751066
Bq         3.0941960637    -4.1490516135    -0.4462584814
Bq         3.0886928270    -4.1008551222    -0.4341418562
Bq         3.0831895904    -4.0526586308    -0.4220252310
Bq         3.0776863537    -4.0044621394    -0.4099086057
Bq         3.0721831170    -3.9562656481    -0.3977919805
Bq         3.0666798803    -3.9080691567    -0.3856753553
Bq         3.0611766436    -3.8598726654    -0.3735587300
Bq         3.0556734069    -3.8116761740    -0.3614421048
Bq         3.0501701702    -3.7634796827    -0.3493254796
Bq         3.0446669336    -3.7152831913    -0.3372088544
Bq         3.0391636969    -3.6670866999    -0.3250922291
Bq         3.0336604602    -3.6188902086    -0.3129756039
Bq         3.0281572235    -3.5706937172    -0.3008589787
Bq         3.0226539868    -3.5224972259    -0.2887423534
Bq         3.0171507501    -3.4743007345    -0.2766257282
Bq         3.0116475134    -3.4261042432    -0.2645091030
Bq         3.0061442768    -3.3779077518    -0.2523924778
Bq         3.0006410401    -3.3297112605    -0.2402758525
Bq         2.9951378034    -3.2815147691    -0.2281592273
Bq         2.9896345667    -3.2333182777    -0.2160426021
Bq         2.9841313300    -3.1851217864    -0.2039259768
Bq         2.9786280933    -3.1369252950    -0.1918093516
Bq         2.9731248566    -3.0887288037    -0.1796927264
Bq         2.9676216200    -3.0405323123    -0.1675761012
Bq         2.9621183833    -2.9923358210    -0.1554594759
Bq         2.9566151466    -2.9441393296    -0.1433428507
Bq         2.9511119099    -2.8959428383    -0.1312262255
Bq         2.9456086732    -2.8477463469    -0.1191096002
Bq         2.9401054365    -2.7995498555    -0.1069929750
Bq         2.9346021998    -2.7513533642    -0.0948763498
Bq         2.9290989632    -2.7031568728    -0.0827597245
Bq         2.9235957265    -2.6549603815    -0.0706430993
Bq         2.9180924898    -2.6067638901    -0.0585264741
Bq         2.9125892531    -2.5585673988    -0.0464098489
Bq         2.9070860164    -2.5103709074    -0.0342932236
Bq         2.9015827797    -2.4621744160    -0.0221765984
Bq         2.8960795430    -2.4139779247    -0.0100599732
Bq         2.8905763063    -2.3657814333     0.0020566521
Bq         2.8850730697    -2.3175849420     0.0141732773
Bq         2.8795698330    -2.2693884506     0.0262899025
Bq         2.8740665963    -2.2211919593     0.0384065277
Bq         2.8685633596    -2.1729954679     0.0505231530
Bq         2.8630601229    -2.1247989766     0.0626397782
Bq         2.8575568862    -2.0766024852     0.0747564034
Bq         2.8520536495    -2.0284059938     0.0868730287
Bq         2.8465504129    -1.9802095025     0.0989896539
Bq         2.8410471762    -1.9320130111     0.1111062791
Bq         2.8355439395    -1.8838165198     0.1232229043
Bq         2.8300407028    -1.8356200284     0.1353395296
Bq         2.8245374661    -1.7874235371     0.1474561548
Bq         2.8190342294    -1.7392270457     0.1595727800
Bq         2.8135309927    -1.6910305543     0.1716894053
Bq         2.8080277561    -1.6428340630     0.1838060305
Bq         2.8025245194    -1.5946375716     0.1959226557
Bq         2.7970212827    -1.5464410803     0.2080392809
Bq         2.7915180460    -1.4982445889     0.2201559062
Bq         2.7860148093    -1.4500480976     0.2322725314
Bq         2.7805115726    -1.4018516062     0.2443891566
Bq         2.7750083359    -1.3536551149     0.2565057819
Bq         2.7695050993    -1.3054586235     0.2686224071
Bq         2.7640018626    -1.2572621321     0.2807390323
Bq         2.7584986259    -1.2090656408     0.2928556575
Bq         2.7529953892    -1.1608691494     0.3049722828
Bq         2.7474921525    -1.1126726581     0.3170889080
Bq         2.7419889158    -1.0644761667     0.3292055332
Bq         2.7364856791    -1.0162796754     0.3413221585
Bq         2.7309824425    -0.9680831840     0.3534387837
Bq         2.7254792058    -0.9198866927     0.3655554089
Bq         2.7199759691    -0.8716902013     0.3776720342
Bq         2.7144727324    -0.8234937099     0.3897886594
Bq         2.7089694957    -0.7752972186     0.4019052846
Bq         2.7034662590    -0.7271007272     0.4140219098
Bq         2.6979630223    -0.6789042359     0.4261385351
Bq         2.6924597857    -0.6307077445     0.4382551603
Bq         2.6869565490    -0.5825112532     0.4503717855
Bq         2.6814533123    -0.5343147618     0.4624884108
Bq         2.6759500756    -0.4861182704     0.4746050360
Bq         2.6704468389    -0.4379217791     0.4867216612
Bq         2.6649436022    -0.3897252877     0.4988382864
Bq         2.6594403655    -0.3415287964     0.5109549117
Bq         2.6539371288    -0.2933323050     0.5230715369
Bq         2.6484338922    -0.2451358137     0.5351881621
Bq         2.6429306555    -0.1969393223     0.5473047874
Bq         2.6374274188    -0.1487428310     0.5594214126
Bq         2.6319241821    -0.1005463396     0.5715380378
Bq         2.6264209454    -0.0523498482     0.5836546630
Bq         2.6209177087    -0.0041533569     0.5957712883
Bq         2.6154144720     0.0440431345     0.6078879135
Bq         3.2112625773    -4.7756060011    -0.5830979156
Bq         3.2057593406    -4.7274095098    -0.5709812904
Bq         3.2002561039    -4.6792130184    -0.5588646651
Bq         3.1947528673    -4.6310165271    -0.5467480399
Bq         3.1892496306    -4.5828200357    -0.5346314147
Bq         3.1837463939    -4.5346235444    -0.5225147894
Bq         3.1782431572    -4.4864270530    -0.5103981642
Bq         3.1727399205    -4.4382305616    -0.4982815390
Bq         3.1672366838    -4.3900340703    -0.4861649138
Bq         3.1617334471    -4.3418375789    -0.4740482885
Bq         3.1562302104    -4.2936410876    -0.4619316633
Bq         3.1507269738    -4.2454445962    -0.4498150381
Bq         3.1452237371    -4.1972481049    -0.4376984128
Bq         3.1397205004    -4.1490516135    -0.4255817876
Bq         3.1342172637    -4.1008551222    -0.4134651624
Bq         3.1287140270    -4.0526586308    -0.4013485371

1
2
3
4
5
6
7
8
9
10
11
12
13
14
15
16
17
18
19
20
21
22
23
24
25
26
27
28
29
30
31
32
33
34
35
36
37
38
39
40
41
42
43
44
45
46
47
48
49
50
51
52
53
54
55
56
57
58
59
60
61
62
63
64
65
66
67
68
69
70
71
72
73
74
75
76
77
78
79
80
81
82
83
84
85
86
87
88
89
90
91
92
93
94
95
96
97
98
99
100
101
102
103
104
105
106
107
108
109
110
111
112
113
114
115
116
117
118
119
120
121
122
123
124
125
126
127
128
129
130
131
132
133
134
135
136
137
138
139
140
141
142
143
144
145
146
147
148
149
150
151
152
153
154
155
156
157
158
159
160
161
162
163
164
165
166
167
168
169
170
171
172
173
174
175
176
177
178
179
180
181
182
183
184
185
186
187
188
189
190
191
192
193
194
195
196
197
198
199
200
201
202
203
204
205
206
207
208
209
210
211
212
213
214
215
216
217
218
219
220
221
222
223
224
225
226
227
228
229
230
231
232
233
234
235
236

