%nproc=8
%mem=1000MB
# rb3lyp/6-311+g** NMR geom=connectivity

Title

0 1
C    -4.0500558   -0.5771862    0.8136712
H    -5.0263804   -1.0082727    1.0024760
C    -3.9381552    0.6617804    0.2400876
H    -4.8252424    1.2338890   -0.0111295
C    -2.6768410    1.2433246    0.0057578
C    -1.4974121    0.5051527    0.2848253
C    -1.6508332   -0.7338728    0.9404026
H    -0.7713646   -1.2730967    1.2633753
C    -2.8898548   -1.2624035    1.1994307
H    -2.9683706   -2.2124563    1.7152676
C    -2.5773185    2.5963696   -0.4192930
H    -3.4870728    3.1412239   -0.6474055
C    -1.3741895    3.2147896   -0.4364030
H    -1.2997315    4.2742019   -0.6578144
C    -0.1719488    2.4994090   -0.1734588
C    -0.2043917    1.1018437    0.0192689
C     1.0513491    3.2042560   -0.0676222
H     1.0427344    4.2819499   -0.1896997
C     2.1942091    2.5487446    0.2579577
H     3.1168527    3.0912848    0.4334727
C     2.2216473    1.1336562    0.2934990
C     1.0486931    0.3945528    0.0302412
C     3.4483363    0.4614633    0.5573939
H     4.3095794    1.0606054    0.8334846
C     3.5427346   -0.8855926    0.4749463
H     4.4731467   -1.3939704    0.7038822
C     2.4490052   -1.6474447   -0.0196319
C     1.2150704   -1.0057258   -0.3013573
C     0.2531113   -1.7434440   -1.0216591
H    -0.6541356   -1.2535051   -1.3462847
C     0.4494193   -3.0628597   -1.3413779
H    -0.3083162   -3.5944309   -1.9054060
C     1.6251726   -3.7207967   -0.9552541
H     1.7670048   -4.7687404   -1.1927019
C     2.6109872   -3.0144177   -0.3183050
H     3.5525612   -3.4902813   -0.0646367
Bq        -1.1701322164     1.5693287042    -0.0363855521
Bq        -1.1696457393     1.6177986202    -0.0486505668
Bq        -1.1691592622     1.6662685361    -0.0609155815
Bq        -1.1686727851     1.7147384521    -0.0731805962
Bq        -1.1681863080     1.7632083681    -0.0854456109
Bq        -1.1676998309     1.8116782840    -0.0977106256
Bq        -1.1672133538     1.8601482000    -0.1099756403
Bq        -1.1667268766     1.9086181160    -0.1222406551
Bq        -1.1662403995     1.9570880319    -0.1345056698
Bq        -1.1657539224     2.0055579479    -0.1467706845
Bq        -1.1652674453     2.0540278639    -0.1590356992
Bq        -1.1647809682     2.1024977798    -0.1713007139
Bq        -1.1642944911     2.1509676958    -0.1835657286
Bq        -1.1638080140     2.1994376118    -0.1958307433
Bq        -1.1633215369     2.2479075278    -0.2080957580
Bq        -1.1628350597     2.2963774437    -0.2203607728
Bq        -1.1623485826     2.3448473597    -0.2326257875
Bq        -1.1618621055     2.3933172757    -0.2448908022
Bq        -1.1613756284     2.4417871916    -0.2571558169
Bq        -1.1608891513     2.4902571076    -0.2694208316
Bq        -1.1604026742     2.5387270236    -0.2816858463
Bq        -1.1599161971     2.5871969395    -0.2939508610
Bq        -1.1594297200     2.6356668555    -0.3062158758
Bq        -1.1589432428     2.6841367715    -0.3184808905
Bq        -1.1584567657     2.7326066875    -0.3307459052
Bq        -1.1579702886     2.7810766034    -0.3430109199
Bq        -1.1574838115     2.8295465194    -0.3552759346
Bq        -1.1569973344     2.8780164354    -0.3675409493
Bq        -1.1565108573     2.9264863513    -0.3798059640
Bq        -1.1560243802     2.9749562673    -0.3920709788
Bq        -1.1555379031     3.0234261833    -0.4043359935
Bq        -1.1550514259     3.0718960992    -0.4166010082
Bq        -1.1545649488     3.1203660152    -0.4288660229
Bq        -1.1540784717     3.1688359312    -0.4411310376
Bq        -1.1535919946     3.2173058471    -0.4533960523
Bq        -1.1531055175     3.2657757631    -0.4656610670
Bq        -1.1526190404     3.3142456791    -0.4779260817
Bq        -1.1521325633     3.3627155951    -0.4901910965
Bq        -1.1516460862     3.4111855110    -0.5024561112
Bq        -1.1511596090     3.4596554270    -0.5147211259
Bq        -1.1506731319     3.5081253430    -0.5269861406
Bq        -1.1501866548     3.5565952589    -0.5392511553
Bq        -1.1497001777     3.6050651749    -0.5515161700
Bq        -1.1492137006     3.6535350909    -0.5637811847
Bq        -1.1487272235     3.7020050068    -0.5760461995
Bq        -1.1482407464     3.7504749228    -0.5883112142
Bq        -1.1477542693     3.7989448388    -0.6005762289
Bq        -1.1472677922     3.8474147548    -0.6128412436
Bq        -1.1467813150     3.8958846707    -0.6251062583
Bq        -1.1462948379     3.9443545867    -0.6373712730
Bq        -1.1458083608     3.9928245027    -0.6496362877
Bq        -1.1453218837     4.0412944186    -0.6619013025
Bq        -1.1448354066     4.0897643346    -0.6741663172
Bq        -1.1443489295     4.1382342506    -0.6864313319
Bq        -1.1438624524     4.1867041665    -0.6986963466
Bq        -1.1433759753     4.2351740825    -0.7109613613
Bq        -1.1428894981     4.2836439985    -0.7232263760
Bq        -1.1415764934    -0.5633475985     0.5052567273
Bq        -1.1410900163    -0.5148776825     0.4929917126
Bq        -1.1406035392    -0.4664077665     0.4807266978
Bq        -1.1401170621    -0.4179378506     0.4684616831
Bq        -1.1396305850    -0.3694679346     0.4561966684
Bq        -1.1391441079    -0.3209980186     0.4439316537
Bq        -1.1386576308    -0.2725281027     0.4316666390
Bq        -1.1381711537    -0.2240581867     0.4194016243
Bq        -1.1376846765    -0.1755882707     0.4071366096
Bq        -1.1371981994    -0.1271183548     0.3948715948
Bq        -1.1367117223    -0.0786484388     0.3826065801
Bq        -1.1362252452    -0.0301785228     0.3703415654
Bq        -1.1357387681     0.0182913932     0.3580765507
Bq        -1.1352522910     0.0667613091     0.3458115360
Bq        -1.1347658139     0.1152312251     0.3335465213
Bq        -1.1342793368     0.1637011411     0.3212815066
Bq        -1.1337928596     0.2121710570     0.3090164919
Bq        -1.1333063825     0.2606409730     0.2967514771
Bq        -1.1328199054     0.3091108890     0.2844864624
Bq        -1.1323334283     0.3575808049     0.2722214477
Bq        -1.1318469512     0.4060507209     0.2599564330
Bq        -1.1313604741     0.4545206369     0.2476914183
Bq        -1.1308739970     0.5029905529     0.2354264036
Bq        -1.1303875199     0.5514604688     0.2231613889
Bq        -1.1299010428     0.5999303848     0.2108963741
Bq        -1.1294145656     0.6484003008     0.1986313594
Bq        -1.1289280885     0.6968702167     0.1863663447
Bq        -1.1284416114     0.7453401327     0.1741013300
Bq        -1.1279551343     0.7938100487     0.1618363153
Bq        -1.1274686572     0.8422799646     0.1495713006
Bq        -1.1269821801     0.8907498806     0.1373062859
Bq        -1.1264957030     0.9392197966     0.1250412711
Bq        -1.1260092259     0.9876897125     0.1127762564
Bq        -1.1255227487     1.0361596285     0.1005112417
Bq        -1.1250362716     1.0846295445     0.0882462270
Bq        -1.1245497945     1.1330994605     0.0759812123
Bq        -1.1240633174     1.1815693764     0.0637161976
Bq        -1.1235768403     1.2300392924     0.0514511829
Bq        -1.1230903632     1.2785092084     0.0391861682
Bq        -1.1226038861     1.3269791243     0.0269211534
Bq        -1.1221174090     1.3754490403     0.0146561387
Bq        -1.1216309318     1.4239189563     0.0023911240
Bq        -1.1211444547     1.4723888722    -0.0098738907
Bq        -1.1206579776     1.5208587882    -0.0221389054
Bq        -1.1201715005     1.5693287042    -0.0344039201
Bq        -1.1196850234     1.6177986202    -0.0466689348
Bq        -1.1191985463     1.6662685361    -0.0589339496
Bq        -1.1187120692     1.7147384521    -0.0711989643
Bq        -1.1182255921     1.7632083681    -0.0834639790
Bq        -1.1177391149     1.8116782840    -0.0957289937
Bq        -1.1172526378     1.8601482000    -0.1079940084
Bq        -1.1167661607     1.9086181160    -0.1202590231
Bq        -1.1162796836     1.9570880319    -0.1325240378
Bq        -1.1157932065     2.0055579479    -0.1447890525
Bq        -1.1153067294     2.0540278639    -0.1570540673
Bq        -1.1148202523     2.1024977798    -0.1693190820
Bq        -1.1143337752     2.1509676958    -0.1815840967
Bq        -1.1138472980     2.1994376118    -0.1938491114
Bq        -1.1133608209     2.2479075278    -0.2061141261
Bq        -1.1128743438     2.2963774437    -0.2183791408
Bq        -1.1123878667     2.3448473597    -0.2306441555
Bq        -1.1119013896     2.3933172757    -0.2429091703
Bq        -1.1114149125     2.4417871916    -0.2551741850
Bq        -1.1109284354     2.4902571076    -0.2674391997
Bq        -1.1104419583     2.5387270236    -0.2797042144
Bq        -1.1099554812     2.5871969395    -0.2919692291
Bq        -1.1094690040     2.6356668555    -0.3042342438
Bq        -1.1089825269     2.6841367715    -0.3164992585
Bq        -1.1084960498     2.7326066875    -0.3287642733
Bq        -1.1080095727     2.7810766034    -0.3410292880
Bq        -1.1075230956     2.8295465194    -0.3532943027
Bq        -1.1070366185     2.8780164354    -0.3655593174
Bq        -1.1065501414     2.9264863513    -0.3778243321
Bq        -1.1060636643     2.9749562673    -0.3900893468
Bq        -1.1055771871     3.0234261833    -0.4023543615
Bq        -1.1050907100     3.0718960992    -0.4146193762
Bq        -1.1046042329     3.1203660152    -0.4268843910
Bq        -1.1041177558     3.1688359312    -0.4391494057
Bq        -1.1036312787     3.2173058471    -0.4514144204
Bq        -1.1031448016     3.2657757631    -0.4636794351
Bq        -1.1026583245     3.3142456791    -0.4759444498
Bq        -1.1021718474     3.3627155951    -0.4882094645
Bq        -1.1016853702     3.4111855110    -0.5004744792
Bq        -1.1011988931     3.4596554270    -0.5127394940
Bq        -1.1007124160     3.5081253430    -0.5250045087
Bq        -1.1002259389     3.5565952589    -0.5372695234
Bq        -1.0997394618     3.6050651749    -0.5495345381
Bq        -1.0992529847     3.6535350909    -0.5617995528
Bq        -1.0987665076     3.7020050068    -0.5740645675
Bq        -1.0982800305     3.7504749228    -0.5863295822
Bq        -1.0977935533     3.7989448388    -0.5985945970
Bq        -1.0973070762     3.8474147548    -0.6108596117
Bq        -1.0968205991     3.8958846707    -0.6231246264
Bq        -1.0963341220     3.9443545867    -0.6353896411
Bq        -1.0958476449     3.9928245027    -0.6476546558
Bq        -1.0953611678     4.0412944186    -0.6599196705
Bq        -1.0948746907     4.0897643346    -0.6721846852
Bq        -1.0943882136     4.1382342506    -0.6844496999
Bq        -1.0939017364     4.1867041665    -0.6967147147
Bq        -1.0934152593     4.2351740825    -0.7089797294
Bq        -1.0929287822     4.2836439985    -0.7212447441
Bq        -1.0916157775    -0.5633475985     0.5072383592
Bq        -1.0911293004    -0.5148776825     0.4949733445
Bq        -1.0906428233    -0.4664077665     0.4827083298
Bq        -1.0901563462    -0.4179378506     0.4704433151
Bq        -1.0896698691    -0.3694679346     0.4581783003
Bq        -1.0891833920    -0.3209980186     0.4459132856
Bq        -1.0886969149    -0.2725281027     0.4336482709
Bq        -1.0882104377    -0.2240581867     0.4213832562
Bq        -1.0877239606    -0.1755882707     0.4091182415
Bq        -1.0872374835    -0.1271183548     0.3968532268
Bq        -1.0867510064    -0.0786484388     0.3845882121
Bq        -1.0862645293    -0.0301785228     0.3723231974
Bq        -1.0857780522     0.0182913932     0.3600581826
Bq        -1.0852915751     0.0667613091     0.3477931679
Bq        -1.0848050980     0.1152312251     0.3355281532
Bq        -1.0843186208     0.1637011411     0.3232631385
Bq        -1.0838321437     0.2121710570     0.3109981238
Bq        -1.0833456666     0.2606409730     0.2987331091
Bq        -1.0828591895     0.3091108890     0.2864680944
Bq        -1.0823727124     0.3575808049     0.2742030796
Bq        -1.0818862353     0.4060507209     0.2619380649
Bq        -1.0813997582     0.4545206369     0.2496730502
Bq        -1.0809132811     0.5029905529     0.2374080355
Bq        -1.0804268039     0.5514604688     0.2251430208
Bq        -1.0799403268     0.5999303848     0.2128780061
Bq        -1.0794538497     0.6484003008     0.2006129914
Bq        -1.0789673726     0.6968702167     0.1883479766
Bq        -1.0784808955     0.7453401327     0.1760829619
Bq        -1.0779944184     0.7938100487     0.1638179472
Bq        -1.0775079413     0.8422799646     0.1515529325
Bq        -1.0770214642     0.8907498806     0.1392879178
Bq        -1.0765349871     0.9392197966     0.1270229031
Bq        -1.0760485099     0.9876897125     0.1147578884
Bq        -1.0755620328     1.0361596285     0.1024928737
Bq        -1.0750755557     1.0846295445     0.0902278589
Bq        -1.0745890786     1.1330994605     0.0779628442
Bq        -1.0741026015     1.1815693764     0.0656978295
Bq        -1.0736161244     1.2300392924     0.0534328148
Bq        -1.0731296473     1.2785092084     0.0411678001
Bq        -1.0726431702     1.3269791243     0.0289027854
Bq        -1.0721566930     1.3754490403     0.0166377707
Bq        -1.0716702159     1.4239189563     0.0043727559

1
2
3
4
5
6
7
8
9
10
11
12
13
14
15
16
17
18
19
20
21
22
23
24
25
26
27
28
29
30
31
32
33
34
35
36
37
38
39
40
41
42
43
44
45
46
47
48
49
50
51
52
53
54
55
56
57
58
59
60
61
62
63
64
65
66
67
68
69
70
71
72
73
74
75
76
77
78
79
80
81
82
83
84
85
86
87
88
89
90
91
92
93
94
95
96
97
98
99
100
101
102
103
104
105
106
107
108
109
110
111
112
113
114
115
116
117
118
119
120
121
122
123
124
125
126
127
128
129
130
131
132
133
134
135
136
137
138
139
140
141
142
143
144
145
146
147
148
149
150
151
152
153
154
155
156
157
158
159
160
161
162
163
164
165
166
167
168
169
170
171
172
173
174
175
176
177
178
179
180
181
182
183
184
185
186
187
188
189
190
191
192
193
194
195
196
197
198
199
200
201
202
203
204
205
206
207
208
209
210
211
212
213
214
215
216
217
218
219
220
221
222
223
224
225
226
227
228
229
230
231
232
233
234
235
236

