%nproc=8
%mem=1000MB
# rb3lyp/6-311+g** NMR geom=connectivity

Title

0 1
C    -4.0500558   -0.5771862    0.8136712
H    -5.0263804   -1.0082727    1.0024760
C    -3.9381552    0.6617804    0.2400876
H    -4.8252424    1.2338890   -0.0111295
C    -2.6768410    1.2433246    0.0057578
C    -1.4974121    0.5051527    0.2848253
C    -1.6508332   -0.7338728    0.9404026
H    -0.7713646   -1.2730967    1.2633753
C    -2.8898548   -1.2624035    1.1994307
H    -2.9683706   -2.2124563    1.7152676
C    -2.5773185    2.5963696   -0.4192930
H    -3.4870728    3.1412239   -0.6474055
C    -1.3741895    3.2147896   -0.4364030
H    -1.2997315    4.2742019   -0.6578144
C    -0.1719488    2.4994090   -0.1734588
C    -0.2043917    1.1018437    0.0192689
C     1.0513491    3.2042560   -0.0676222
H     1.0427344    4.2819499   -0.1896997
C     2.1942091    2.5487446    0.2579577
H     3.1168527    3.0912848    0.4334727
C     2.2216473    1.1336562    0.2934990
C     1.0486931    0.3945528    0.0302412
C     3.4483363    0.4614633    0.5573939
H     4.3095794    1.0606054    0.8334846
C     3.5427346   -0.8855926    0.4749463
H     4.4731467   -1.3939704    0.7038822
C     2.4490052   -1.6474447   -0.0196319
C     1.2150704   -1.0057258   -0.3013573
C     0.2531113   -1.7434440   -1.0216591
H    -0.6541356   -1.2535051   -1.3462847
C     0.4494193   -3.0628597   -1.3413779
H    -0.3083162   -3.5944309   -1.9054060
C     1.6251726   -3.7207967   -0.9552541
H     1.7670048   -4.7687404   -1.1927019
C     2.6109872   -3.0144177   -0.3183050
H     3.5525612   -3.4902813   -0.0646367
Bq        -3.2331714773     0.3330047707     0.4049973748
Bq        -3.2330860111     0.3780304670     0.3832561843
Bq        -3.2330005450     0.4230561634     0.3615149938
Bq        -3.2329150789     0.4680818597     0.3397738032
Bq        -3.2328296127     0.5131075560     0.3180326127
Bq        -3.2327441466     0.5581332524     0.2962914222
Bq        -3.2326586805     0.6031589487     0.2745502317
Bq        -3.2325732143     0.6481846450     0.2528090412
Bq        -3.2324877482     0.6932103414     0.2310678507
Bq        -3.2324022820     0.7382360377     0.2093266602
Bq        -3.2323168159     0.7832617340     0.1875854696
Bq        -3.2322313498     0.8282874304     0.1658442791
Bq        -3.2321458836     0.8733131267     0.1441030886
Bq        -3.2320604175     0.9183388230     0.1223618981
Bq        -3.2319749514     0.9633645194     0.1006207076
Bq        -3.2318894852     1.0083902157     0.0788795171
Bq        -3.2318040191     1.0534159120     0.0571383265
Bq        -3.2317185529     1.0984416084     0.0353971360
Bq        -3.2316330868     1.1434673047     0.0136559455
Bq        -3.2315476207     1.1884930011    -0.0080852450
Bq        -3.2314621545     1.2335186974    -0.0298264355
Bq        -3.2313766884     1.2785443937    -0.0515676260
Bq        -3.2312912223     1.3235700901    -0.0733088166
Bq        -3.2312057561     1.3685957864    -0.0950500071
Bq        -3.2311202900     1.4136214827    -0.1167911976
Bq        -3.2310348238     1.4586471791    -0.1385323881
Bq        -3.2309493577     1.5036728754    -0.1602735786
Bq        -3.2308638916     1.5486985717    -0.1820147691
Bq        -3.2307784254     1.5937242681    -0.2037559597
Bq        -3.2306929593     1.6387499644    -0.2254971502
Bq        -3.2306074932     1.6837756607    -0.2472383407
Bq        -3.2305220270     1.7288013571    -0.2689795312
Bq        -3.2304365609     1.7738270534    -0.2907207217
Bq        -3.2303510947     1.8188527497    -0.3124619122
Bq        -3.2302656286     1.8638784461    -0.3342031028
Bq        -3.2301801625     1.9089041424    -0.3559442933
Bq        -3.2300946963     1.9539298388    -0.3776854838
Bq        -3.2300092302     1.9989555351    -0.3994266743
Bq        -3.2299237641     2.0439812314    -0.4211678648
Bq        -3.2298382979     2.0890069278    -0.4429090553
Bq        -3.2297528318     2.1340326241    -0.4646502459
Bq        -3.2296673656     2.1790583204    -0.4863914364
Bq        -3.2295818995     2.2240840168    -0.5081326269
Bq        -3.1881288996    -2.2784856168     1.6661829767
Bq        -3.1880434334    -2.2334599204     1.6444417862
Bq        -3.1879579673    -2.1884342241     1.6227005957
Bq        -3.1878725012    -2.1434085278     1.6009594052
Bq        -3.1877870350    -2.0983828314     1.5792182146
Bq        -3.1877015689    -2.0533571351     1.5574770241
Bq        -3.1876161028    -2.0083314388     1.5357358336
Bq        -3.1875306366    -1.9633057424     1.5139946431
Bq        -3.1874451705    -1.9182800461     1.4922534526
Bq        -3.1873597043    -1.8732543497     1.4705122621
Bq        -3.1872742382    -1.8282286534     1.4487710715
Bq        -3.1871887721    -1.7832029571     1.4270298810
Bq        -3.1871033059    -1.7381772607     1.4052886905
Bq        -3.1870178398    -1.6931515644     1.3835475000
Bq        -3.1869323737    -1.6481258681     1.3618063095
Bq        -3.1868469075    -1.6031001717     1.3400651190
Bq        -3.1867614414    -1.5580744754     1.3183239284
Bq        -3.1866759752    -1.5130487791     1.2965827379
Bq        -3.1865905091    -1.4680230827     1.2748415474
Bq        -3.1865050430    -1.4229973864     1.2531003569
Bq        -3.1864195768    -1.3779716901     1.2313591664
Bq        -3.1863341107    -1.3329459937     1.2096179759
Bq        -3.1862486446    -1.2879202974     1.1878767854
Bq        -3.1861631784    -1.2428946011     1.1661355948
Bq        -3.1860777123    -1.1978689047     1.1443944043
Bq        -3.1859922461    -1.1528432084     1.1226532138
Bq        -3.1859067800    -1.1078175120     1.1009120233
Bq        -3.1858213139    -1.0627918157     1.0791708328
Bq        -3.1857358477    -1.0177661194     1.0574296423
Bq        -3.1856503816    -0.9727404230     1.0356884517
Bq        -3.1855649155    -0.9277147267     1.0139472612
Bq        -3.1854794493    -0.8826890304     0.9922060707
Bq        -3.1853939832    -0.8376633340     0.9704648802
Bq        -3.1853085170    -0.7926376377     0.9487236897
Bq        -3.1852230509    -0.7476119414     0.9269824992
Bq        -3.1851375848    -0.7025862450     0.9052413086
Bq        -3.1850521186    -0.6575605487     0.8835001181
Bq        -3.1849666525    -0.6125348524     0.8617589276
Bq        -3.1848811864    -0.5675091560     0.8400177371
Bq        -3.1847957202    -0.5224834597     0.8182765466
Bq        -3.1847102541    -0.4774577634     0.7965353561
Bq        -3.1846247879    -0.4324320670     0.7747941655
Bq        -3.1845393218    -0.3874063707     0.7530529750
Bq        -3.1844538557    -0.3423806743     0.7313117845
Bq        -3.1843683895    -0.2973549780     0.7095705940
Bq        -3.1842829234    -0.2523292817     0.6878294035
Bq        -3.1841974573    -0.2073035853     0.6660882130
Bq        -3.1841119911    -0.1622778890     0.6443470224
Bq        -3.1840265250    -0.1172521927     0.6226058319
Bq        -3.1839410588    -0.0722264963     0.6008646414
Bq        -3.1838555927    -0.0272008000     0.5791234509
Bq        -3.1837701266     0.0178248963     0.5573822604
Bq        -3.1836846604     0.0628505927     0.5356410699
Bq        -3.1835991943     0.1078762890     0.5138998793
Bq        -3.1835137282     0.1529019853     0.4921586888
Bq        -3.1834282620     0.1979276817     0.4704174983
Bq        -3.1833427959     0.2429533780     0.4486763078
Bq        -3.1832573297     0.2879790743     0.4269351173
Bq        -3.1831718636     0.3330047707     0.4051939268
Bq        -3.1830863975     0.3780304670     0.3834527363
Bq        -3.1830009313     0.4230561634     0.3617115457
Bq        -3.1829154652     0.4680818597     0.3399703552
Bq        -3.1828299991     0.5131075560     0.3182291647
Bq        -3.1827445329     0.5581332524     0.2964879742
Bq        -3.1826590668     0.6031589487     0.2747467837
Bq        -3.1825736006     0.6481846450     0.2530055932
Bq        -3.1824881345     0.6932103414     0.2312644026
Bq        -3.1824026684     0.7382360377     0.2095232121
Bq        -3.1823172022     0.7832617340     0.1877820216
Bq        -3.1822317361     0.8282874304     0.1660408311
Bq        -3.1821462700     0.8733131267     0.1442996406
Bq        -3.1820608038     0.9183388230     0.1225584501
Bq        -3.1819753377     0.9633645194     0.1008172595
Bq        -3.1818898715     1.0083902157     0.0790760690
Bq        -3.1818044054     1.0534159120     0.0573348785
Bq        -3.1817189393     1.0984416084     0.0355936880
Bq        -3.1816334731     1.1434673047     0.0138524975
Bq        -3.1815480070     1.1884930011    -0.0078886930
Bq        -3.1814625409     1.2335186974    -0.0296298836
Bq        -3.1813770747     1.2785443937    -0.0513710741
Bq        -3.1812916086     1.3235700901    -0.0731122646
Bq        -3.1812061424     1.3685957864    -0.0948534551
Bq        -3.1811206763     1.4136214827    -0.1165946456
Bq        -3.1810352102     1.4586471791    -0.1383358361
Bq        -3.1809497440     1.5036728754    -0.1600770267
Bq        -3.1808642779     1.5486985717    -0.1818182172
Bq        -3.1807788118     1.5937242681    -0.2035594077
Bq        -3.1806933456     1.6387499644    -0.2253005982
Bq        -3.1806078795     1.6837756607    -0.2470417887
Bq        -3.1805224134     1.7288013571    -0.2687829792
Bq        -3.1804369472     1.7738270534    -0.2905241698
Bq        -3.1803514811     1.8188527497    -0.3122653603
Bq        -3.1802660149     1.8638784461    -0.3340065508
Bq        -3.1801805488     1.9089041424    -0.3557477413
Bq        -3.1800950827     1.9539298388    -0.3774889318
Bq        -3.1800096165     1.9989555351    -0.3992301223
Bq        -3.1799241504     2.0439812314    -0.4209713128
Bq        -3.1798386843     2.0890069278    -0.4427125034
Bq        -3.1797532181     2.1340326241    -0.4644536939
Bq        -3.1796677520     2.1790583204    -0.4861948844
Bq        -3.1795822858     2.2240840168    -0.5079360749
Bq        -3.1381292859    -2.2784856168     1.6663795287
Bq        -3.1380438198    -2.2334599204     1.6446383382
Bq        -3.1379583536    -2.1884342241     1.6228971476
Bq        -3.1378728875    -2.1434085278     1.6011559571
Bq        -3.1377874214    -2.0983828314     1.5794147666
Bq        -3.1377019552    -2.0533571351     1.5576735761
Bq        -3.1376164891    -2.0083314388     1.5359323856
Bq        -3.1375310229    -1.9633057424     1.5141911951
Bq        -3.1374455568    -1.9182800461     1.4924500046
Bq        -3.1373600907    -1.8732543497     1.4707088140
Bq        -3.1372746245    -1.8282286534     1.4489676235
Bq        -3.1371891584    -1.7832029571     1.4272264330
Bq        -3.1371036923    -1.7381772607     1.4054852425
Bq        -3.1370182261    -1.6931515644     1.3837440520
Bq        -3.1369327600    -1.6481258681     1.3620028615
Bq        -3.1368472938    -1.6031001717     1.3402616709
Bq        -3.1367618277    -1.5580744754     1.3185204804
Bq        -3.1366763616    -1.5130487791     1.2967792899
Bq        -3.1365908954    -1.4680230827     1.2750380994
Bq        -3.1365054293    -1.4229973864     1.2532969089
Bq        -3.1364199632    -1.3779716901     1.2315557184
Bq        -3.1363344970    -1.3329459937     1.2098145278
Bq        -3.1362490309    -1.2879202974     1.1880733373
Bq        -3.1361635647    -1.2428946011     1.1663321468
Bq        -3.1360780986    -1.1978689047     1.1445909563
Bq        -3.1359926325    -1.1528432084     1.1228497658
Bq        -3.1359071663    -1.1078175120     1.1011085753
Bq        -3.1358217002    -1.0627918157     1.0793673847
Bq        -3.1357362341    -1.0177661194     1.0576261942
Bq        -3.1356507679    -0.9727404230     1.0358850037
Bq        -3.1355653018    -0.9277147267     1.0141438132
Bq        -3.1354798356    -0.8826890304     0.9924026227
Bq        -3.1353943695    -0.8376633340     0.9706614322
Bq        -3.1353089034    -0.7926376377     0.9489202416
Bq        -3.1352234372    -0.7476119414     0.9271790511
Bq        -3.1351379711    -0.7025862450     0.9054378606
Bq        -3.1350525050    -0.6575605487     0.8836966701
Bq        -3.1349670388    -0.6125348524     0.8619554796
Bq        -3.1348815727    -0.5675091560     0.8402142891
Bq        -3.1347961065    -0.5224834597     0.8184730985
Bq        -3.1347106404    -0.4774577634     0.7967319080
Bq        -3.1346251743    -0.4324320670     0.7749907175
Bq        -3.1345397081    -0.3874063707     0.7532495270
Bq        -3.1344542420    -0.3423806743     0.7315083365
Bq        -3.1343687759    -0.2973549780     0.7097671460
Bq        -3.1342833097    -0.2523292817     0.6880259555
Bq        -3.1341978436    -0.2073035853     0.6662847649
Bq        -3.1341123774    -0.1622778890     0.6445435744
Bq        -3.1340269113    -0.1172521927     0.6228023839
Bq        -3.1339414452    -0.0722264963     0.6010611934
Bq        -3.1338559790    -0.0272008000     0.5793200029
Bq        -3.1337705129     0.0178248963     0.5575788124
Bq        -3.1336850468     0.0628505927     0.5358376218
Bq        -3.1335995806     0.1078762890     0.5140964313
Bq        -3.1335141145     0.1529019853     0.4923552408
Bq        -3.1334286483     0.1979276817     0.4706140503

1
2
3
4
5
6
7
8
9
10
11
12
13
14
15
16
17
18
19
20
21
22
23
24
25
26
27
28
29
30
31
32
33
34
35
36
37
38
39
40
41
42
43
44
45
46
47
48
49
50
51
52
53
54
55
56
57
58
59
60
61
62
63
64
65
66
67
68
69
70
71
72
73
74
75
76
77
78
79
80
81
82
83
84
85
86
87
88
89
90
91
92
93
94
95
96
97
98
99
100
101
102
103
104
105
106
107
108
109
110
111
112
113
114
115
116
117
118
119
120
121
122
123
124
125
126
127
128
129
130
131
132
133
134
135
136
137
138
139
140
141
142
143
144
145
146
147
148
149
150
151
152
153
154
155
156
157
158
159
160
161
162
163
164
165
166
167
168
169
170
171
172
173
174
175
176
177
178
179
180
181
182
183
184
185
186
187
188
189
190
191
192
193
194
195
196
197
198
199
200
201
202
203
204
205
206
207
208
209
210
211
212
213
214
215
216
217
218
219
220
221
222
223
224
225
226
227
228
229
230
231
232
233
234
235
236

