%nproc=8
%mem=1000MB
# rb3lyp/6-311+g** NMR geom=connectivity

Title

0 1
C    -4.0500558   -0.5771862    0.8136712
H    -5.0263804   -1.0082727    1.0024760
C    -3.9381552    0.6617804    0.2400876
H    -4.8252424    1.2338890   -0.0111295
C    -2.6768410    1.2433246    0.0057578
C    -1.4974121    0.5051527    0.2848253
C    -1.6508332   -0.7338728    0.9404026
H    -0.7713646   -1.2730967    1.2633753
C    -2.8898548   -1.2624035    1.1994307
H    -2.9683706   -2.2124563    1.7152676
C    -2.5773185    2.5963696   -0.4192930
H    -3.4870728    3.1412239   -0.6474055
C    -1.3741895    3.2147896   -0.4364030
H    -1.2997315    4.2742019   -0.6578144
C    -0.1719488    2.4994090   -0.1734588
C    -0.2043917    1.1018437    0.0192689
C     1.0513491    3.2042560   -0.0676222
H     1.0427344    4.2819499   -0.1896997
C     2.1942091    2.5487446    0.2579577
H     3.1168527    3.0912848    0.4334727
C     2.2216473    1.1336562    0.2934990
C     1.0486931    0.3945528    0.0302412
C     3.4483363    0.4614633    0.5573939
H     4.3095794    1.0606054    0.8334846
C     3.5427346   -0.8855926    0.4749463
H     4.4731467   -1.3939704    0.7038822
C     2.4490052   -1.6474447   -0.0196319
C     1.2150704   -1.0057258   -0.3013573
C     0.2531113   -1.7434440   -1.0216591
H    -0.6541356   -1.2535051   -1.3462847
C     0.4494193   -3.0628597   -1.3413779
H    -0.3083162   -3.5944309   -1.9054060
C     1.6251726   -3.7207967   -0.9552541
H     1.7670048   -4.7687404   -1.1927019
C     2.6109872   -3.0144177   -0.3183050
H     3.5525612   -3.4902813   -0.0646367
Bq         2.7739628612    -0.7530952702     0.2205550203
Bq         2.7721173360    -0.7036039232     0.2274252900
Bq         2.7702718107    -0.6541125761     0.2342955598
Bq         2.7684262854    -0.6046212291     0.2411658296
Bq         2.7665807601    -0.5551298821     0.2480360994
Bq         2.7647352349    -0.5056385351     0.2549063692
Bq         2.7628897096    -0.4561471881     0.2617766389
Bq         2.7610441843    -0.4066558411     0.2686469087
Bq         2.7591986591    -0.3571644940     0.2755171785
Bq         2.7573531338    -0.3076731470     0.2823874483
Bq         2.7555076085    -0.2581818000     0.2892577181
Bq         2.7536620833    -0.2086904530     0.2961279878
Bq         2.7518165580    -0.1591991060     0.3029982576
Bq         2.7499710327    -0.1097077589     0.3098685274
Bq         2.7481255075    -0.0602164119     0.3167387972
Bq         2.7462799822    -0.0107250649     0.3236090669
Bq         2.7444344569     0.0387662821     0.3304793367
Bq         2.7425889317     0.0882576291     0.3373496065
Bq         2.7407434064     0.1377489761     0.3442198763
Bq         2.7388978811     0.1872403232     0.3510901461
Bq         2.7370523559     0.2367316702     0.3579604158
Bq         2.7352068306     0.2862230172     0.3648306856
Bq         2.7333613053     0.3357143642     0.3717009554
Bq         2.7315157801     0.3852057112     0.3785712252
Bq         2.7296702548     0.4346970583     0.3854414950
Bq         2.7278247295     0.4841884053     0.3923117647
Bq         2.7259792043     0.5336797523     0.3991820345
Bq         2.7241336790     0.5831710993     0.4060523043
Bq         2.7222881537     0.6326624463     0.4129225741
Bq         2.7204426285     0.6821537933     0.4197928439
Bq         2.7185971032     0.7316451404     0.4266631136
Bq         2.7167515779     0.7811364874     0.4335333834
Bq         2.7149060527     0.8306278344     0.4404036532
Bq         2.7130605274     0.8801191814     0.4472739230
Bq         2.7112150021     0.9296105284     0.4541441928
Bq         2.7093694769     0.9791018754     0.4610144625
Bq         2.7075239516     1.0285932225     0.4678847323
Bq         2.7056784263     1.0780845695     0.4747550021
Bq         2.7038329010     1.1275759165     0.4816252719
Bq         2.7019873758     1.1770672635     0.4884955417
Bq         2.7001418505     1.2265586105     0.4953658114
Bq         2.6982963252     1.2760499576     0.5022360812
Bq         2.6964508000     1.3255413046     0.5091063510
Bq         2.6946052747     1.3750326516     0.5159766208
Bq         2.6927597494     1.4245239986     0.5228468906
Bq         2.6909142242     1.4740153456     0.5297171603
Bq         2.6890686989     1.5235066926     0.5365874301
Bq         2.6872231736     1.5729980397     0.5434576999
Bq         2.6853776484     1.6224893867     0.5503279697
Bq         2.6835321231     1.6719807337     0.5571982394
Bq         2.6816865978     1.7214720807     0.5640685092
Bq         2.6798410726     1.7709634277     0.5709387790
Bq         2.6779955473     1.8204547748     0.5778090488
Bq         2.6761500220     1.8699461218     0.5846793186
Bq         2.6743044968     1.9194374688     0.5915495883
Bq         2.6724589715     1.9689288158     0.5984198581
Bq         2.6706134462     2.0184201628     0.6052901279
Bq         2.6687679210     2.0679115098     0.6121603977
Bq         2.6669223957     2.1174028569     0.6190306675
Bq         2.6650768704     2.1668942039     0.6259009372
Bq         2.6632313452     2.2163855509     0.6327712070
Bq         2.8960719970    -2.7327491509    -0.0412843800
Bq         2.8942264717    -2.6832578039    -0.0344141102
Bq         2.8923809464    -2.6337664569    -0.0275438405
Bq         2.8905354211    -2.5842751098    -0.0206735707
Bq         2.8886898959    -2.5347837628    -0.0138033009
Bq         2.8868443706    -2.4852924158    -0.0069330311
Bq         2.8849988453    -2.4358010688    -0.0000627614
Bq         2.8831533201    -2.3863097218     0.0068075084
Bq         2.8813077948    -2.3368183748     0.0136777782
Bq         2.8794622695    -2.2873270277     0.0205480480
Bq         2.8776167443    -2.2378356807     0.0274183178
Bq         2.8757712190    -2.1883443337     0.0342885875
Bq         2.8739256937    -2.1388529867     0.0411588573
Bq         2.8720801685    -2.0893616397     0.0480291271
Bq         2.8702346432    -2.0398702926     0.0548993969
Bq         2.8683891179    -1.9903789456     0.0617696667
Bq         2.8665435927    -1.9408875986     0.0686399364
Bq         2.8646980674    -1.8913962516     0.0755102062
Bq         2.8628525421    -1.8419049046     0.0823804760
Bq         2.8610070169    -1.7924135576     0.0892507458
Bq         2.8591614916    -1.7429222105     0.0961210156
Bq         2.8573159663    -1.6934308635     0.1029912853
Bq         2.8554704411    -1.6439395165     0.1098615551
Bq         2.8536249158    -1.5944481695     0.1167318249
Bq         2.8517793905    -1.5449568225     0.1236020947
Bq         2.8499338653    -1.4954654754     0.1304723645
Bq         2.8480883400    -1.4459741284     0.1373426342
Bq         2.8462428147    -1.3964827814     0.1442129040
Bq         2.8443972895    -1.3469914344     0.1510831738
Bq         2.8425517642    -1.2975000874     0.1579534436
Bq         2.8407062389    -1.2480087404     0.1648237134
Bq         2.8388607137    -1.1985173933     0.1716939831
Bq         2.8370151884    -1.1490260463     0.1785642529
Bq         2.8351696631    -1.0995346993     0.1854345227
Bq         2.8333241378    -1.0500433523     0.1923047925
Bq         2.8314786126    -1.0005520053     0.1991750623
Bq         2.8296330873    -0.9510606583     0.2060453320
Bq         2.8277875620    -0.9015693112     0.2129156018
Bq         2.8259420368    -0.8520779642     0.2197858716
Bq         2.8240965115    -0.8025866172     0.2266561414
Bq         2.8222509862    -0.7530952702     0.2335264112
Bq         2.8204054610    -0.7036039232     0.2403966809
Bq         2.8185599357    -0.6541125761     0.2472669507
Bq         2.8167144104    -0.6046212291     0.2541372205
Bq         2.8148688852    -0.5551298821     0.2610074903
Bq         2.8130233599    -0.5056385351     0.2678777600
Bq         2.8111778346    -0.4561471881     0.2747480298
Bq         2.8093323094    -0.4066558411     0.2816182996
Bq         2.8074867841    -0.3571644940     0.2884885694
Bq         2.8056412588    -0.3076731470     0.2953588392
Bq         2.8037957336    -0.2581818000     0.3022291089
Bq         2.8019502083    -0.2086904530     0.3090993787
Bq         2.8001046830    -0.1591991060     0.3159696485
Bq         2.7982591578    -0.1097077589     0.3228399183
Bq         2.7964136325    -0.0602164119     0.3297101881
Bq         2.7945681072    -0.0107250649     0.3365804578
Bq         2.7927225820     0.0387662821     0.3434507276
Bq         2.7908770567     0.0882576291     0.3503209974
Bq         2.7890315314     0.1377489761     0.3571912672
Bq         2.7871860062     0.1872403232     0.3640615370
Bq         2.7853404809     0.2367316702     0.3709318067
Bq         2.7834949556     0.2862230172     0.3778020765
Bq         2.7816494304     0.3357143642     0.3846723463
Bq         2.7798039051     0.3852057112     0.3915426161
Bq         2.7779583798     0.4346970583     0.3984128859
Bq         2.7761128546     0.4841884053     0.4052831556
Bq         2.7742673293     0.5336797523     0.4121534254
Bq         2.7724218040     0.5831710993     0.4190236952
Bq         2.7705762787     0.6326624463     0.4258939650
Bq         2.7687307535     0.6821537933     0.4327642348
Bq         2.7668852282     0.7316451404     0.4396345045
Bq         2.7650397029     0.7811364874     0.4465047743
Bq         2.7631941777     0.8306278344     0.4533750441
Bq         2.7613486524     0.8801191814     0.4602453139
Bq         2.7595031271     0.9296105284     0.4671155837
Bq         2.7576576019     0.9791018754     0.4739858534
Bq         2.7558120766     1.0285932225     0.4808561232
Bq         2.7539665513     1.0780845695     0.4877263930
Bq         2.7521210261     1.1275759165     0.4945966628
Bq         2.7502755008     1.1770672635     0.5014669325
Bq         2.7484299755     1.2265586105     0.5083372023
Bq         2.7465844503     1.2760499576     0.5152074721
Bq         2.7447389250     1.3255413046     0.5220777419
Bq         2.7428933997     1.3750326516     0.5289480117
Bq         2.7410478745     1.4245239986     0.5358182814
Bq         2.7392023492     1.4740153456     0.5426885512
Bq         2.7373568239     1.5235066926     0.5495588210
Bq         2.7355112987     1.5729980397     0.5564290908
Bq         2.7336657734     1.6224893867     0.5632993606
Bq         2.7318202481     1.6719807337     0.5701696303
Bq         2.7299747229     1.7214720807     0.5770399001
Bq         2.7281291976     1.7709634277     0.5839101699
Bq         2.7262836723     1.8204547748     0.5907804397
Bq         2.7244381471     1.8699461218     0.5976507095
Bq         2.7225926218     1.9194374688     0.6045209792
Bq         2.7207470965     1.9689288158     0.6113912490
Bq         2.7189015713     2.0184201628     0.6182615188
Bq         2.7170560460     2.0679115098     0.6251317886
Bq         2.7152105207     2.1174028569     0.6320020584
Bq         2.7133649954     2.1668942039     0.6388723281
Bq         2.7115194702     2.2163855509     0.6457425979
Bq         2.9443601220    -2.7327491509    -0.0283129891
Bq         2.9425145967    -2.6832578039    -0.0214427194
Bq         2.9406690714    -2.6337664569    -0.0145724496
Bq         2.9388235462    -2.5842751098    -0.0077021798
Bq         2.9369780209    -2.5347837628    -0.0008319100
Bq         2.9351324956    -2.4852924158     0.0060383598
Bq         2.9332869704    -2.4358010688     0.0129086295
Bq         2.9314414451    -2.3863097218     0.0197788993
Bq         2.9295959198    -2.3368183748     0.0266491691
Bq         2.9277503946    -2.2873270277     0.0335194389
Bq         2.9259048693    -2.2378356807     0.0403897087
Bq         2.9240593440    -2.1883443337     0.0472599784
Bq         2.9222138188    -2.1388529867     0.0541302482
Bq         2.9203682935    -2.0893616397     0.0610005180
Bq         2.9185227682    -2.0398702926     0.0678707878
Bq         2.9166772430    -1.9903789456     0.0747410576
Bq         2.9148317177    -1.9408875986     0.0816113273
Bq         2.9129861924    -1.8913962516     0.0884815971
Bq         2.9111406672    -1.8419049046     0.0953518669
Bq         2.9092951419    -1.7924135576     0.1022221367
Bq         2.9074496166    -1.7429222105     0.1090924065
Bq         2.9056040914    -1.6934308635     0.1159626762
Bq         2.9037585661    -1.6439395165     0.1228329460
Bq         2.9019130408    -1.5944481695     0.1297032158
Bq         2.9000675155    -1.5449568225     0.1365734856
Bq         2.8982219903    -1.4954654754     0.1434437554
Bq         2.8963764650    -1.4459741284     0.1503140251
Bq         2.8945309397    -1.3964827814     0.1571842949
Bq         2.8926854145    -1.3469914344     0.1640545647
Bq         2.8908398892    -1.2975000874     0.1709248345
Bq         2.8889943639    -1.2480087404     0.1777951043
Bq         2.8871488387    -1.1985173933     0.1846653740
Bq         2.8853033134    -1.1490260463     0.1915356438
Bq         2.8834577881    -1.0995346993     0.1984059136
Bq         2.8816122629    -1.0500433523     0.2052761834
Bq         2.8797667376    -1.0005520053     0.2121464531
Bq         2.8779212123    -0.9510606583     0.2190167229
Bq         2.8760756871    -0.9015693112     0.2258869927

1
2
3
4
5
6
7
8
9
10
11
12
13
14
15
16
17
18
19
20
21
22
23
24
25
26
27
28
29
30
31
32
33
34
35
36
37
38
39
40
41
42
43
44
45
46
47
48
49
50
51
52
53
54
55
56
57
58
59
60
61
62
63
64
65
66
67
68
69
70
71
72
73
74
75
76
77
78
79
80
81
82
83
84
85
86
87
88
89
90
91
92
93
94
95
96
97
98
99
100
101
102
103
104
105
106
107
108
109
110
111
112
113
114
115
116
117
118
119
120
121
122
123
124
125
126
127
128
129
130
131
132
133
134
135
136
137
138
139
140
141
142
143
144
145
146
147
148
149
150
151
152
153
154
155
156
157
158
159
160
161
162
163
164
165
166
167
168
169
170
171
172
173
174
175
176
177
178
179
180
181
182
183
184
185
186
187
188
189
190
191
192
193
194
195
196
197
198
199
200
201
202
203
204
205
206
207
208
209
210
211
212
213
214
215
216
217
218
219
220
221
222
223
224
225
226
227
228
229
230
231
232
233
234
235
236

