%nproc=8
%mem=1000MB
# rb3lyp/6-311+g** NMR geom=connectivity

Title

0 1
C    -4.0500558   -0.5771862    0.8136712
H    -5.0263804   -1.0082727    1.0024760
C    -3.9381552    0.6617804    0.2400876
H    -4.8252424    1.2338890   -0.0111295
C    -2.6768410    1.2433246    0.0057578
C    -1.4974121    0.5051527    0.2848253
C    -1.6508332   -0.7338728    0.9404026
H    -0.7713646   -1.2730967    1.2633753
C    -2.8898548   -1.2624035    1.1994307
H    -2.9683706   -2.2124563    1.7152676
C    -2.5773185    2.5963696   -0.4192930
H    -3.4870728    3.1412239   -0.6474055
C    -1.3741895    3.2147896   -0.4364030
H    -1.2997315    4.2742019   -0.6578144
C    -0.1719488    2.4994090   -0.1734588
C    -0.2043917    1.1018437    0.0192689
C     1.0513491    3.2042560   -0.0676222
H     1.0427344    4.2819499   -0.1896997
C     2.1942091    2.5487446    0.2579577
H     3.1168527    3.0912848    0.4334727
C     2.2216473    1.1336562    0.2934990
C     1.0486931    0.3945528    0.0302412
C     3.4483363    0.4614633    0.5573939
H     4.3095794    1.0606054    0.8334846
C     3.5427346   -0.8855926    0.4749463
H     4.4731467   -1.3939704    0.7038822
C     2.4490052   -1.6474447   -0.0196319
C     1.2150704   -1.0057258   -0.3013573
C     0.2531113   -1.7434440   -1.0216591
H    -0.6541356   -1.2535051   -1.3462847
C     0.4494193   -3.0628597   -1.3413779
H    -0.3083162   -3.5944309   -1.9054060
C     1.6251726   -3.7207967   -0.9552541
H     1.7670048   -4.7687404   -1.1927019
C     2.6109872   -3.0144177   -0.3183050
H     3.5525612   -3.4902813   -0.0646367
Bq        -4.2314544280     1.2335186974    -0.0337574749
Bq        -4.2313689618     1.2785443937    -0.0554986655
Bq        -4.2312834957     1.3235700901    -0.0772398560
Bq        -4.2311980296     1.3685957864    -0.0989810465
Bq        -4.2311125634     1.4136214827    -0.1207222370
Bq        -4.2310270973     1.4586471791    -0.1424634275
Bq        -4.2309416311     1.5036728754    -0.1642046180
Bq        -4.2308561650     1.5486985717    -0.1859458086
Bq        -4.2307706989     1.5937242681    -0.2076869991
Bq        -4.2306852327     1.6387499644    -0.2294281896
Bq        -4.2305997666     1.6837756607    -0.2511693801
Bq        -4.2305143005     1.7288013571    -0.2729105706
Bq        -4.2304288343     1.7738270534    -0.2946517611
Bq        -4.2303433682     1.8188527497    -0.3163929517
Bq        -4.2302579020     1.8638784461    -0.3381341422
Bq        -4.2301724359     1.9089041424    -0.3598753327
Bq        -4.2300869698     1.9539298388    -0.3816165232
Bq        -4.2300015036     1.9989555351    -0.4033577137
Bq        -4.2299160375     2.0439812314    -0.4250989042
Bq        -4.2298305714     2.0890069278    -0.4468400948
Bq        -4.2297451052     2.1340326241    -0.4685812853
Bq        -4.2296596391     2.1790583204    -0.4903224758
Bq        -4.2295741729     2.2240840168    -0.5120636663
Bq        -4.1881211730    -2.2784856168     1.6622519373
Bq        -4.1880357069    -2.2334599204     1.6405107468
Bq        -4.1879502407    -2.1884342241     1.6187695563
Bq        -4.1878647746    -2.1434085278     1.5970283657
Bq        -4.1877793085    -2.0983828314     1.5752871752
Bq        -4.1876938423    -2.0533571351     1.5535459847
Bq        -4.1876083762    -2.0083314388     1.5318047942
Bq        -4.1875229100    -1.9633057424     1.5100636037
Bq        -4.1874374439    -1.9182800461     1.4883224132
Bq        -4.1873519778    -1.8732543497     1.4665812226
Bq        -4.1872665116    -1.8282286534     1.4448400321
Bq        -4.1871810455    -1.7832029571     1.4230988416
Bq        -4.1870955794    -1.7381772607     1.4013576511
Bq        -4.1870101132    -1.6931515644     1.3796164606
Bq        -4.1869246471    -1.6481258681     1.3578752701
Bq        -4.1868391809    -1.6031001717     1.3361340795
Bq        -4.1867537148    -1.5580744754     1.3143928890
Bq        -4.1866682487    -1.5130487791     1.2926516985
Bq        -4.1865827825    -1.4680230827     1.2709105080
Bq        -4.1864973164    -1.4229973864     1.2491693175
Bq        -4.1864118503    -1.3779716901     1.2274281270
Bq        -4.1863263841    -1.3329459937     1.2056869364
Bq        -4.1862409180    -1.2879202974     1.1839457459
Bq        -4.1861554519    -1.2428946011     1.1622045554
Bq        -4.1860699857    -1.1978689047     1.1404633649
Bq        -4.1859845196    -1.1528432084     1.1187221744
Bq        -4.1858990534    -1.1078175120     1.0969809839
Bq        -4.1858135873    -1.0627918157     1.0752397933
Bq        -4.1857281212    -1.0177661194     1.0534986028
Bq        -4.1856426550    -0.9727404230     1.0317574123
Bq        -4.1855571889    -0.9277147267     1.0100162218
Bq        -4.1854717228    -0.8826890304     0.9882750313
Bq        -4.1853862566    -0.8376633340     0.9665338408
Bq        -4.1853007905    -0.7926376377     0.9447926503
Bq        -4.1852153243    -0.7476119414     0.9230514597
Bq        -4.1851298582    -0.7025862450     0.9013102692
Bq        -4.1850443921    -0.6575605487     0.8795690787
Bq        -4.1849589259    -0.6125348524     0.8578278882
Bq        -4.1848734598    -0.5675091560     0.8360866977
Bq        -4.1847879937    -0.5224834597     0.8143455072
Bq        -4.1847025275    -0.4774577634     0.7926043166
Bq        -4.1846170614    -0.4324320670     0.7708631261
Bq        -4.1845315952    -0.3874063707     0.7491219356
Bq        -4.1844461291    -0.3423806743     0.7273807451
Bq        -4.1843606630    -0.2973549780     0.7056395546
Bq        -4.1842751968    -0.2523292817     0.6838983641
Bq        -4.1841897307    -0.2073035853     0.6621571735
Bq        -4.1841042646    -0.1622778890     0.6404159830
Bq        -4.1840187984    -0.1172521927     0.6186747925
Bq        -4.1839333323    -0.0722264963     0.5969336020
Bq        -4.1838478661    -0.0272008000     0.5751924115
Bq        -4.1837624000     0.0178248963     0.5534512210
Bq        -4.1836769339     0.0628505927     0.5317100304
Bq        -4.1835914677     0.1078762890     0.5099688399
Bq        -4.1835060016     0.1529019853     0.4882276494
Bq        -4.1834205355     0.1979276817     0.4664864589
Bq        -4.1833350693     0.2429533780     0.4447452684
Bq        -4.1832496032     0.2879790743     0.4230040779
Bq        -4.1831641370     0.3330047707     0.4012628873
Bq        -4.1830786709     0.3780304670     0.3795216968
Bq        -4.1829932048     0.4230561634     0.3577805063
Bq        -4.1829077386     0.4680818597     0.3360393158
Bq        -4.1828222725     0.5131075560     0.3142981253
Bq        -4.1827368064     0.5581332524     0.2925569348
Bq        -4.1826513402     0.6031589487     0.2708157442
Bq        -4.1825658741     0.6481846450     0.2490745537
Bq        -4.1824804079     0.6932103414     0.2273333632
Bq        -4.1823949418     0.7382360377     0.2055921727
Bq        -4.1823094757     0.7832617340     0.1838509822
Bq        -4.1822240095     0.8282874304     0.1621097917
Bq        -4.1821385434     0.8733131267     0.1403686012
Bq        -4.1820530773     0.9183388230     0.1186274106
Bq        -4.1819676111     0.9633645194     0.0968862201
Bq        -4.1818821450     1.0083902157     0.0751450296
Bq        -4.1817966788     1.0534159120     0.0534038391
Bq        -4.1817112127     1.0984416084     0.0316626486
Bq        -4.1816257466     1.1434673047     0.0099214581
Bq        -4.1815402804     1.1884930011    -0.0118197325
Bq        -4.1814548143     1.2335186974    -0.0335609230
Bq        -4.1813693482     1.2785443937    -0.0553021135
Bq        -4.1812838820     1.3235700901    -0.0770433040
Bq        -4.1811984159     1.3685957864    -0.0987844945
Bq        -4.1811129497     1.4136214827    -0.1205256850
Bq        -4.1810274836     1.4586471791    -0.1422668756
Bq        -4.1809420175     1.5036728754    -0.1640080661
Bq        -4.1808565513     1.5486985717    -0.1857492566
Bq        -4.1807710852     1.5937242681    -0.2074904471
Bq        -4.1806856191     1.6387499644    -0.2292316376
Bq        -4.1806001529     1.6837756607    -0.2509728281
Bq        -4.1805146868     1.7288013571    -0.2727140187
Bq        -4.1804292206     1.7738270534    -0.2944552092
Bq        -4.1803437545     1.8188527497    -0.3161963997
Bq        -4.1802582884     1.8638784461    -0.3379375902
Bq        -4.1801728222     1.9089041424    -0.3596787807
Bq        -4.1800873561     1.9539298388    -0.3814199712
Bq        -4.1800018900     1.9989555351    -0.4031611618
Bq        -4.1799164238     2.0439812314    -0.4249023523
Bq        -4.1798309577     2.0890069278    -0.4466435428
Bq        -4.1797454915     2.1340326241    -0.4683847333
Bq        -4.1796600254     2.1790583204    -0.4901259238
Bq        -4.1795745593     2.2240840168    -0.5118671143
Bq        -4.1381215593    -2.2784856168     1.6624484893
Bq        -4.1380360932    -2.2334599204     1.6407072987
Bq        -4.1379506271    -2.1884342241     1.6189661082
Bq        -4.1378651609    -2.1434085278     1.5972249177
Bq        -4.1377796948    -2.0983828314     1.5754837272
Bq        -4.1376942287    -2.0533571351     1.5537425367
Bq        -4.1376087625    -2.0083314388     1.5320013462
Bq        -4.1375232964    -1.9633057424     1.5102601556
Bq        -4.1374378302    -1.9182800461     1.4885189651
Bq        -4.1373523641    -1.8732543497     1.4667777746
Bq        -4.1372668980    -1.8282286534     1.4450365841
Bq        -4.1371814318    -1.7832029571     1.4232953936
Bq        -4.1370959657    -1.7381772607     1.4015542031
Bq        -4.1370104996    -1.6931515644     1.3798130125
Bq        -4.1369250334    -1.6481258681     1.3580718220
Bq        -4.1368395673    -1.6031001717     1.3363306315
Bq        -4.1367541011    -1.5580744754     1.3145894410
Bq        -4.1366686350    -1.5130487791     1.2928482505
Bq        -4.1365831689    -1.4680230827     1.2711070600
Bq        -4.1364977027    -1.4229973864     1.2493658695
Bq        -4.1364122366    -1.3779716901     1.2276246789
Bq        -4.1363267705    -1.3329459937     1.2058834884
Bq        -4.1362413043    -1.2879202974     1.1841422979
Bq        -4.1361558382    -1.2428946011     1.1624011074
Bq        -4.1360703720    -1.1978689047     1.1406599169
Bq        -4.1359849059    -1.1528432084     1.1189187264
Bq        -4.1358994398    -1.1078175120     1.0971775358
Bq        -4.1358139736    -1.0627918157     1.0754363453
Bq        -4.1357285075    -1.0177661194     1.0536951548
Bq        -4.1356430414    -0.9727404230     1.0319539643
Bq        -4.1355575752    -0.9277147267     1.0102127738
Bq        -4.1354721091    -0.8826890304     0.9884715833
Bq        -4.1353866429    -0.8376633340     0.9667303927
Bq        -4.1353011768    -0.7926376377     0.9449892022
Bq        -4.1352157107    -0.7476119414     0.9232480117
Bq        -4.1351302445    -0.7025862450     0.9015068212
Bq        -4.1350447784    -0.6575605487     0.8797656307
Bq        -4.1349593123    -0.6125348524     0.8580244402
Bq        -4.1348738461    -0.5675091560     0.8362832496
Bq        -4.1347883800    -0.5224834597     0.8145420591
Bq        -4.1347029138    -0.4774577634     0.7928008686
Bq        -4.1346174477    -0.4324320670     0.7710596781
Bq        -4.1345319816    -0.3874063707     0.7493184876
Bq        -4.1344465154    -0.3423806743     0.7275772971
Bq        -4.1343610493    -0.2973549780     0.7058361065
Bq        -4.1342755832    -0.2523292817     0.6840949160
Bq        -4.1341901170    -0.2073035853     0.6623537255
Bq        -4.1341046509    -0.1622778890     0.6406125350
Bq        -4.1340191847    -0.1172521927     0.6188713445
Bq        -4.1339337186    -0.0722264963     0.5971301540
Bq        -4.1338482525    -0.0272008000     0.5753889634
Bq        -4.1337627863     0.0178248963     0.5536477729
Bq        -4.1336773202     0.0628505927     0.5319065824
Bq        -4.1335918541     0.1078762890     0.5101653919
Bq        -4.1335063879     0.1529019853     0.4884242014
Bq        -4.1334209218     0.1979276817     0.4666830109
Bq        -4.1333354556     0.2429533780     0.4449418203
Bq        -4.1332499895     0.2879790743     0.4232006298
Bq        -4.1331645234     0.3330047707     0.4014594393
Bq        -4.1330790572     0.3780304670     0.3797182488
Bq        -4.1329935911     0.4230561634     0.3579770583
Bq        -4.1329081250     0.4680818597     0.3362358678
Bq        -4.1328226588     0.5131075560     0.3144946773
Bq        -4.1327371927     0.5581332524     0.2927534867
Bq        -4.1326517265     0.6031589487     0.2710122962
Bq        -4.1325662604     0.6481846450     0.2492711057
Bq        -4.1324807943     0.6932103414     0.2275299152
Bq        -4.1323953281     0.7382360377     0.2057887247
Bq        -4.1323098620     0.7832617340     0.1840475342
Bq        -4.1322243959     0.8282874304     0.1623063436
Bq        -4.1321389297     0.8733131267     0.1405651531
Bq        -4.1320534636     0.9183388230     0.1188239626
Bq        -4.1319679974     0.9633645194     0.0970827721
Bq        -4.1318825313     1.0083902157     0.0753415816
Bq        -4.1317970652     1.0534159120     0.0536003911
Bq        -4.1317115990     1.0984416084     0.0318592005

1
2
3
4
5
6
7
8
9
10
11
12
13
14
15
16
17
18
19
20
21
22
23
24
25
26
27
28
29
30
31
32
33
34
35
36
37
38
39
40
41
42
43
44
45
46
47
48
49
50
51
52
53
54
55
56
57
58
59
60
61
62
63
64
65
66
67
68
69
70
71
72
73
74
75
76
77
78
79
80
81
82
83
84
85
86
87
88
89
90
91
92
93
94
95
96
97
98
99
100
101
102
103
104
105
106
107
108
109
110
111
112
113
114
115
116
117
118
119
120
121
122
123
124
125
126
127
128
129
130
131
132
133
134
135
136
137
138
139
140
141
142
143
144
145
146
147
148
149
150
151
152
153
154
155
156
157
158
159
160
161
162
163
164
165
166
167
168
169
170
171
172
173
174
175
176
177
178
179
180
181
182
183
184
185
186
187
188
189
190
191
192
193
194
195
196
197
198
199
200
201
202
203
204
205
206
207
208
209
210
211
212
213
214
215
216
217
218
219
220
221
222
223
224
225
226
227
228
229
230
231
232
233
234
235
236

