%nproc=8
%mem=1000MB
# rb3lyp/6-311+g** NMR geom=connectivity

Title

0 1
C    -4.0500558   -0.5771862    0.8136712
H    -5.0263804   -1.0082727    1.0024760
C    -3.9381552    0.6617804    0.2400876
H    -4.8252424    1.2338890   -0.0111295
C    -2.6768410    1.2433246    0.0057578
C    -1.4974121    0.5051527    0.2848253
C    -1.6508332   -0.7338728    0.9404026
H    -0.7713646   -1.2730967    1.2633753
C    -2.8898548   -1.2624035    1.1994307
H    -2.9683706   -2.2124563    1.7152676
C    -2.5773185    2.5963696   -0.4192930
H    -3.4870728    3.1412239   -0.6474055
C    -1.3741895    3.2147896   -0.4364030
H    -1.2997315    4.2742019   -0.6578144
C    -0.1719488    2.4994090   -0.1734588
C    -0.2043917    1.1018437    0.0192689
C     1.0513491    3.2042560   -0.0676222
H     1.0427344    4.2819499   -0.1896997
C     2.1942091    2.5487446    0.2579577
H     3.1168527    3.0912848    0.4334727
C     2.2216473    1.1336562    0.2934990
C     1.0486931    0.3945528    0.0302412
C     3.4483363    0.4614633    0.5573939
H     4.3095794    1.0606054    0.8334846
C     3.5427346   -0.8855926    0.4749463
H     4.4731467   -1.3939704    0.7038822
C     2.4490052   -1.6474447   -0.0196319
C     1.2150704   -1.0057258   -0.3013573
C     0.2531113   -1.7434440   -1.0216591
H    -0.6541356   -1.2535051   -1.3462847
C     0.4494193   -3.0628597   -1.3413779
H    -0.3083162   -3.5944309   -1.9054060
C     1.6251726   -3.7207967   -0.9552541
H     1.7670048   -4.7687404   -1.1927019
C     2.6109872   -3.0144177   -0.3183050
H     3.5525612   -3.4902813   -0.0646367
Bq        -3.9319695428     0.9633645194     0.0978689800
Bq        -3.9318840766     1.0083902157     0.0761277895
Bq        -3.9317986105     1.0534159120     0.0543865989
Bq        -3.9317131443     1.0984416084     0.0326454084
Bq        -3.9316276782     1.1434673047     0.0109042179
Bq        -3.9315422121     1.1884930011    -0.0108369726
Bq        -3.9314567459     1.2335186974    -0.0325781631
Bq        -3.9313712798     1.2785443937    -0.0543193536
Bq        -3.9312858137     1.3235700901    -0.0760605442
Bq        -3.9312003475     1.3685957864    -0.0978017347
Bq        -3.9311148814     1.4136214827    -0.1195429252
Bq        -3.9310294153     1.4586471791    -0.1412841157
Bq        -3.9309439491     1.5036728754    -0.1630253062
Bq        -3.9308584830     1.5486985717    -0.1847664967
Bq        -3.9307730168     1.5937242681    -0.2065076873
Bq        -3.9306875507     1.6387499644    -0.2282488778
Bq        -3.9306020846     1.6837756607    -0.2499900683
Bq        -3.9305166184     1.7288013571    -0.2717312588
Bq        -3.9304311523     1.7738270534    -0.2934724493
Bq        -3.9303456862     1.8188527497    -0.3152136398
Bq        -3.9302602200     1.8638784461    -0.3369548304
Bq        -3.9301747539     1.9089041424    -0.3586960209
Bq        -3.9300892877     1.9539298388    -0.3804372114
Bq        -3.9300038216     1.9989555351    -0.4021784019
Bq        -3.9299183555     2.0439812314    -0.4239195924
Bq        -3.9298328893     2.0890069278    -0.4456607829
Bq        -3.9297474232     2.1340326241    -0.4674019734
Bq        -3.9296619571     2.1790583204    -0.4891431640
Bq        -3.9295764909     2.2240840168    -0.5108843545
Bq        -3.8881234910    -2.2784856168     1.6634312491
Bq        -3.8880380248    -2.2334599204     1.6416900586
Bq        -3.8879525587    -2.1884342241     1.6199488681
Bq        -3.8878670926    -2.1434085278     1.5982076776
Bq        -3.8877816264    -2.0983828314     1.5764664870
Bq        -3.8876961603    -2.0533571351     1.5547252965
Bq        -3.8876106942    -2.0083314388     1.5329841060
Bq        -3.8875252280    -1.9633057424     1.5112429155
Bq        -3.8874397619    -1.9182800461     1.4895017250
Bq        -3.8873542957    -1.8732543497     1.4677605345
Bq        -3.8872688296    -1.8282286534     1.4460193440
Bq        -3.8871833635    -1.7832029571     1.4242781534
Bq        -3.8870978973    -1.7381772607     1.4025369629
Bq        -3.8870124312    -1.6931515644     1.3807957724
Bq        -3.8869269651    -1.6481258681     1.3590545819
Bq        -3.8868414989    -1.6031001717     1.3373133914
Bq        -3.8867560328    -1.5580744754     1.3155722009
Bq        -3.8866705666    -1.5130487791     1.2938310103
Bq        -3.8865851005    -1.4680230827     1.2720898198
Bq        -3.8864996344    -1.4229973864     1.2503486293
Bq        -3.8864141682    -1.3779716901     1.2286074388
Bq        -3.8863287021    -1.3329459937     1.2068662483
Bq        -3.8862432360    -1.2879202974     1.1851250578
Bq        -3.8861577698    -1.2428946011     1.1633838672
Bq        -3.8860723037    -1.1978689047     1.1416426767
Bq        -3.8859868375    -1.1528432084     1.1199014862
Bq        -3.8859013714    -1.1078175120     1.0981602957
Bq        -3.8858159053    -1.0627918157     1.0764191052
Bq        -3.8857304391    -1.0177661194     1.0546779147
Bq        -3.8856449730    -0.9727404230     1.0329367241
Bq        -3.8855595069    -0.9277147267     1.0111955336
Bq        -3.8854740407    -0.8826890304     0.9894543431
Bq        -3.8853885746    -0.8376633340     0.9677131526
Bq        -3.8853031084    -0.7926376377     0.9459719621
Bq        -3.8852176423    -0.7476119414     0.9242307716
Bq        -3.8851321762    -0.7025862450     0.9024895810
Bq        -3.8850467100    -0.6575605487     0.8807483905
Bq        -3.8849612439    -0.6125348524     0.8590072000
Bq        -3.8848757778    -0.5675091560     0.8372660095
Bq        -3.8847903116    -0.5224834597     0.8155248190
Bq        -3.8847048455    -0.4774577634     0.7937836285
Bq        -3.8846193793    -0.4324320670     0.7720424379
Bq        -3.8845339132    -0.3874063707     0.7503012474
Bq        -3.8844484471    -0.3423806743     0.7285600569
Bq        -3.8843629809    -0.2973549780     0.7068188664
Bq        -3.8842775148    -0.2523292817     0.6850776759
Bq        -3.8841920487    -0.2073035853     0.6633364854
Bq        -3.8841065825    -0.1622778890     0.6415952949
Bq        -3.8840211164    -0.1172521927     0.6198541043
Bq        -3.8839356502    -0.0722264963     0.5981129138
Bq        -3.8838501841    -0.0272008000     0.5763717233
Bq        -3.8837647180     0.0178248963     0.5546305328
Bq        -3.8836792518     0.0628505927     0.5328893423
Bq        -3.8835937857     0.1078762890     0.5111481518
Bq        -3.8835083196     0.1529019853     0.4894069612
Bq        -3.8834228534     0.1979276817     0.4676657707
Bq        -3.8833373873     0.2429533780     0.4459245802
Bq        -3.8832519211     0.2879790743     0.4241833897
Bq        -3.8831664550     0.3330047707     0.4024421992
Bq        -3.8830809889     0.3780304670     0.3807010087
Bq        -3.8829955227     0.4230561634     0.3589598181
Bq        -3.8829100566     0.4680818597     0.3372186276
Bq        -3.8828245905     0.5131075560     0.3154774371
Bq        -3.8827391243     0.5581332524     0.2937362466
Bq        -3.8826536582     0.6031589487     0.2719950561
Bq        -3.8825681921     0.6481846450     0.2502538656
Bq        -3.8824827259     0.6932103414     0.2285126750
Bq        -3.8823972598     0.7382360377     0.2067714845
Bq        -3.8823117936     0.7832617340     0.1850302940
Bq        -3.8822263275     0.8282874304     0.1632891035
Bq        -3.8821408614     0.8733131267     0.1415479130
Bq        -3.8820553952     0.9183388230     0.1198067225
Bq        -3.8819699291     0.9633645194     0.0980655319
Bq        -3.8818844630     1.0083902157     0.0763243414
Bq        -3.8817989968     1.0534159120     0.0545831509
Bq        -3.8817135307     1.0984416084     0.0328419604
Bq        -3.8816280645     1.1434673047     0.0111007699
Bq        -3.8815425984     1.1884930011    -0.0106404206
Bq        -3.8814571323     1.2335186974    -0.0323816112
Bq        -3.8813716661     1.2785443937    -0.0541228017
Bq        -3.8812862000     1.3235700901    -0.0758639922
Bq        -3.8812007339     1.3685957864    -0.0976051827
Bq        -3.8811152677     1.4136214827    -0.1193463732
Bq        -3.8810298016     1.4586471791    -0.1410875637
Bq        -3.8809443354     1.5036728754    -0.1628287542
Bq        -3.8808588693     1.5486985717    -0.1845699448
Bq        -3.8807734032     1.5937242681    -0.2063111353
Bq        -3.8806879370     1.6387499644    -0.2280523258
Bq        -3.8806024709     1.6837756607    -0.2497935163
Bq        -3.8805170048     1.7288013571    -0.2715347068
Bq        -3.8804315386     1.7738270534    -0.2932758973
Bq        -3.8803460725     1.8188527497    -0.3150170879
Bq        -3.8802606063     1.8638784461    -0.3367582784
Bq        -3.8801751402     1.9089041424    -0.3584994689
Bq        -3.8800896741     1.9539298388    -0.3802406594
Bq        -3.8800042079     1.9989555351    -0.4019818499
Bq        -3.8799187418     2.0439812314    -0.4237230404
Bq        -3.8798332757     2.0890069278    -0.4454642310
Bq        -3.8797478095     2.1340326241    -0.4672054215
Bq        -3.8796623434     2.1790583204    -0.4889466120
Bq        -3.8795768772     2.2240840168    -0.5106878025
Bq        -3.8381238773    -2.2784856168     1.6636278011
Bq        -3.8380384112    -2.2334599204     1.6418866106
Bq        -3.8379529450    -2.1884342241     1.6201454201
Bq        -3.8378674789    -2.1434085278     1.5984042295
Bq        -3.8377820128    -2.0983828314     1.5766630390
Bq        -3.8376965466    -2.0533571351     1.5549218485
Bq        -3.8376110805    -2.0083314388     1.5331806580
Bq        -3.8375256143    -1.9633057424     1.5114394675
Bq        -3.8374401482    -1.9182800461     1.4896982770
Bq        -3.8373546821    -1.8732543497     1.4679570864
Bq        -3.8372692159    -1.8282286534     1.4462158959
Bq        -3.8371837498    -1.7832029571     1.4244747054
Bq        -3.8370982837    -1.7381772607     1.4027335149
Bq        -3.8370128175    -1.6931515644     1.3809923244
Bq        -3.8369273514    -1.6481258681     1.3592511339
Bq        -3.8368418852    -1.6031001717     1.3375099433
Bq        -3.8367564191    -1.5580744754     1.3157687528
Bq        -3.8366709530    -1.5130487791     1.2940275623
Bq        -3.8365854868    -1.4680230827     1.2722863718
Bq        -3.8365000207    -1.4229973864     1.2505451813
Bq        -3.8364145546    -1.3779716901     1.2288039908
Bq        -3.8363290884    -1.3329459937     1.2070628002
Bq        -3.8362436223    -1.2879202974     1.1853216097
Bq        -3.8361581561    -1.2428946011     1.1635804192
Bq        -3.8360726900    -1.1978689047     1.1418392287
Bq        -3.8359872239    -1.1528432084     1.1200980382
Bq        -3.8359017577    -1.1078175120     1.0983568477
Bq        -3.8358162916    -1.0627918157     1.0766156571
Bq        -3.8357308255    -1.0177661194     1.0548744666
Bq        -3.8356453593    -0.9727404230     1.0331332761
Bq        -3.8355598932    -0.9277147267     1.0113920856
Bq        -3.8354744270    -0.8826890304     0.9896508951
Bq        -3.8353889609    -0.8376633340     0.9679097046
Bq        -3.8353034948    -0.7926376377     0.9461685140
Bq        -3.8352180286    -0.7476119414     0.9244273235
Bq        -3.8351325625    -0.7025862450     0.9026861330
Bq        -3.8350470964    -0.6575605487     0.8809449425
Bq        -3.8349616302    -0.6125348524     0.8592037520
Bq        -3.8348761641    -0.5675091560     0.8374625615
Bq        -3.8347906980    -0.5224834597     0.8157213710
Bq        -3.8347052318    -0.4774577634     0.7939801804
Bq        -3.8346197657    -0.4324320670     0.7722389899
Bq        -3.8345342995    -0.3874063707     0.7504977994
Bq        -3.8344488334    -0.3423806743     0.7287566089
Bq        -3.8343633673    -0.2973549780     0.7070154184
Bq        -3.8342779011    -0.2523292817     0.6852742279
Bq        -3.8341924350    -0.2073035853     0.6635330373
Bq        -3.8341069689    -0.1622778890     0.6417918468
Bq        -3.8340215027    -0.1172521927     0.6200506563
Bq        -3.8339360366    -0.0722264963     0.5983094658
Bq        -3.8338505704    -0.0272008000     0.5765682753
Bq        -3.8337651043     0.0178248963     0.5548270848
Bq        -3.8336796382     0.0628505927     0.5330858942
Bq        -3.8335941720     0.1078762890     0.5113447037
Bq        -3.8335087059     0.1529019853     0.4896035132
Bq        -3.8334232398     0.1979276817     0.4678623227
Bq        -3.8333377736     0.2429533780     0.4461211322
Bq        -3.8332523075     0.2879790743     0.4243799417
Bq        -3.8331668413     0.3330047707     0.4026387511
Bq        -3.8330813752     0.3780304670     0.3808975606
Bq        -3.8329959091     0.4230561634     0.3591563701
Bq        -3.8329104429     0.4680818597     0.3374151796
Bq        -3.8328249768     0.5131075560     0.3156739891
Bq        -3.8327395107     0.5581332524     0.2939327986
Bq        -3.8326540445     0.6031589487     0.2721916080
Bq        -3.8325685784     0.6481846450     0.2504504175
Bq        -3.8324831122     0.6932103414     0.2287092270
Bq        -3.8323976461     0.7382360377     0.2069680365
Bq        -3.8323121800     0.7832617340     0.1852268460
Bq        -3.8322267138     0.8282874304     0.1634856555

1
2
3
4
5
6
7
8
9
10
11
12
13
14
15
16
17
18
19
20
21
22
23
24
25
26
27
28
29
30
31
32
33
34
35
36
37
38
39
40
41
42
43
44
45
46
47
48
49
50
51
52
53
54
55
56
57
58
59
60
61
62
63
64
65
66
67
68
69
70
71
72
73
74
75
76
77
78
79
80
81
82
83
84
85
86
87
88
89
90
91
92
93
94
95
96
97
98
99
100
101
102
103
104
105
106
107
108
109
110
111
112
113
114
115
116
117
118
119
120
121
122
123
124
125
126
127
128
129
130
131
132
133
134
135
136
137
138
139
140
141
142
143
144
145
146
147
148
149
150
151
152
153
154
155
156
157
158
159
160
161
162
163
164
165
166
167
168
169
170
171
172
173
174
175
176
177
178
179
180
181
182
183
184
185
186
187
188
189
190
191
192
193
194
195
196
197
198
199
200
201
202
203
204
205
206
207
208
209
210
211
212
213
214
215
216
217
218
219
220
221
222
223
224
225
226
227
228
229
230
231
232
233
234
235
236

