%nproc=8
%mem=1000MB
# rb3lyp/6-311+g** NMR geom=connectivity

Title

0 1
C    -4.0500558   -0.5771862    0.8136712
H    -5.0263804   -1.0082727    1.0024760
C    -3.9381552    0.6617804    0.2400876
H    -4.8252424    1.2338890   -0.0111295
C    -2.6768410    1.2433246    0.0057578
C    -1.4974121    0.5051527    0.2848253
C    -1.6508332   -0.7338728    0.9404026
H    -0.7713646   -1.2730967    1.2633753
C    -2.8898548   -1.2624035    1.1994307
H    -2.9683706   -2.2124563    1.7152676
C    -2.5773185    2.5963696   -0.4192930
H    -3.4870728    3.1412239   -0.6474055
C    -1.3741895    3.2147896   -0.4364030
H    -1.2997315    4.2742019   -0.6578144
C    -0.1719488    2.4994090   -0.1734588
C    -0.2043917    1.1018437    0.0192689
C     1.0513491    3.2042560   -0.0676222
H     1.0427344    4.2819499   -0.1896997
C     2.1942091    2.5487446    0.2579577
H     3.1168527    3.0912848    0.4334727
C     2.2216473    1.1336562    0.2934990
C     1.0486931    0.3945528    0.0302412
C     3.4483363    0.4614633    0.5573939
H     4.3095794    1.0606054    0.8334846
C     3.5427346   -0.8855926    0.4749463
H     4.4731467   -1.3939704    0.7038822
C     2.4490052   -1.6474447   -0.0196319
C     1.2150704   -1.0057258   -0.3013573
C     0.2531113   -1.7434440   -1.0216591
H    -0.6541356   -1.2535051   -1.3462847
C     0.4494193   -3.0628597   -1.3413779
H    -0.3083162   -3.5944309   -1.9054060
C     1.6251726   -3.7207967   -0.9552541
H     1.7670048   -4.7687404   -1.1927019
C     2.6109872   -3.0144177   -0.3183050
H     3.5525612   -3.4902813   -0.0646367
Bq         1.0694187513     0.9296105284     0.0131169023
Bq         1.0675732261     0.9791018754     0.0199871721
Bq         1.0657277008     1.0285932225     0.0268574419
Bq         1.0638821755     1.0780845695     0.0337277117
Bq         1.0620366503     1.1275759165     0.0405979815
Bq         1.0601911250     1.1770672635     0.0474682512
Bq         1.0583455997     1.2265586105     0.0543385210
Bq         1.0565000745     1.2760499576     0.0612087908
Bq         1.0546545492     1.3255413046     0.0680790606
Bq         1.0528090239     1.3750326516     0.0749493304
Bq         1.0509634987     1.4245239986     0.0818196001
Bq         1.0491179734     1.4740153456     0.0886898699
Bq         1.0472724481     1.5235066926     0.0955601397
Bq         1.0454269228     1.5729980397     0.1024304095
Bq         1.0435813976     1.6224893867     0.1093006793
Bq         1.0417358723     1.6719807337     0.1161709490
Bq         1.0398903470     1.7214720807     0.1230412188
Bq         1.0380448218     1.7709634277     0.1299114886
Bq         1.0361992965     1.8204547748     0.1367817584
Bq         1.0343537712     1.8699461218     0.1436520282
Bq         1.0325082460     1.9194374688     0.1505222979
Bq         1.0306627207     1.9689288158     0.1573925677
Bq         1.0288171954     2.0184201628     0.1642628375
Bq         1.0269716702     2.0679115098     0.1711331073
Bq         1.0251261449     2.1174028569     0.1780033771
Bq         1.0232806196     2.1668942039     0.1848736468
Bq         1.0214350944     2.2163855509     0.1917439166
Bq         1.2542757462    -2.7327491509    -0.4823116704
Bq         1.2524302209    -2.6832578039    -0.4754414007
Bq         1.2505846956    -2.6337664569    -0.4685711309
Bq         1.2487391704    -2.5842751098    -0.4617008611
Bq         1.2468936451    -2.5347837628    -0.4548305913
Bq         1.2450481198    -2.4852924158    -0.4479603215
Bq         1.2432025946    -2.4358010688    -0.4410900518
Bq         1.2413570693    -2.3863097218    -0.4342197820
Bq         1.2395115440    -2.3368183748    -0.4273495122
Bq         1.2376660188    -2.2873270277    -0.4204792424
Bq         1.2358204935    -2.2378356807    -0.4136089726
Bq         1.2339749682    -2.1883443337    -0.4067387029
Bq         1.2321294429    -2.1388529867    -0.3998684331
Bq         1.2302839177    -2.0893616397    -0.3929981633
Bq         1.2284383924    -2.0398702926    -0.3861278935
Bq         1.2265928671    -1.9903789456    -0.3792576237
Bq         1.2247473419    -1.9408875986    -0.3723873540
Bq         1.2229018166    -1.8913962516    -0.3655170842
Bq         1.2210562913    -1.8419049046    -0.3586468144
Bq         1.2192107661    -1.7924135576    -0.3517765446
Bq         1.2173652408    -1.7429222105    -0.3449062749
Bq         1.2155197155    -1.6934308635    -0.3380360051
Bq         1.2136741903    -1.6439395165    -0.3311657353
Bq         1.2118286650    -1.5944481695    -0.3242954655
Bq         1.2099831397    -1.5449568225    -0.3174251957
Bq         1.2081376145    -1.4954654754    -0.3105549260
Bq         1.2062920892    -1.4459741284    -0.3036846562
Bq         1.2044465639    -1.3964827814    -0.2968143864
Bq         1.2026010387    -1.3469914344    -0.2899441166
Bq         1.2007555134    -1.2975000874    -0.2830738468
Bq         1.1989099881    -1.2480087404    -0.2762035771
Bq         1.1970644629    -1.1985173933    -0.2693333073
Bq         1.1952189376    -1.1490260463    -0.2624630375
Bq         1.1933734123    -1.0995346993    -0.2555927677
Bq         1.1915278871    -1.0500433523    -0.2487224979
Bq         1.1896823618    -1.0005520053    -0.2418522282
Bq         1.1878368365    -0.9510606583    -0.2349819584
Bq         1.1859913113    -0.9015693112    -0.2281116886
Bq         1.1841457860    -0.8520779642    -0.2212414188
Bq         1.1823002607    -0.8025866172    -0.2143711490
Bq         1.1804547355    -0.7530952702    -0.2075008793
Bq         1.1786092102    -0.7036039232    -0.2006306095
Bq         1.1767636849    -0.6541125761    -0.1937603397
Bq         1.1749181596    -0.6046212291    -0.1868900699
Bq         1.1730726344    -0.5551298821    -0.1800198001
Bq         1.1712271091    -0.5056385351    -0.1731495304
Bq         1.1693815838    -0.4561471881    -0.1662792606
Bq         1.1675360586    -0.4066558411    -0.1594089908
Bq         1.1656905333    -0.3571644940    -0.1525387210
Bq         1.1638450080    -0.3076731470    -0.1456684512
Bq         1.1619994828    -0.2581818000    -0.1387981815
Bq         1.1601539575    -0.2086904530    -0.1319279117
Bq         1.1583084322    -0.1591991060    -0.1250576419
Bq         1.1564629070    -0.1097077589    -0.1181873721
Bq         1.1546173817    -0.0602164119    -0.1113171024
Bq         1.1527718564    -0.0107250649    -0.1044468326
Bq         1.1509263312     0.0387662821    -0.0975765628
Bq         1.1490808059     0.0882576291    -0.0907062930
Bq         1.1472352806     0.1377489761    -0.0838360232
Bq         1.1453897554     0.1872403232    -0.0769657535
Bq         1.1435442301     0.2367316702    -0.0700954837
Bq         1.1416987048     0.2862230172    -0.0632252139
Bq         1.1398531796     0.3357143642    -0.0563549441
Bq         1.1380076543     0.3852057112    -0.0494846743
Bq         1.1361621290     0.4346970583    -0.0426144046
Bq         1.1343166038     0.4841884053    -0.0357441348
Bq         1.1324710785     0.5336797523    -0.0288738650
Bq         1.1306255532     0.5831710993    -0.0220035952
Bq         1.1287800280     0.6326624463    -0.0151333254
Bq         1.1269345027     0.6821537933    -0.0082630557
Bq         1.1250889774     0.7316451404    -0.0013927859
Bq         1.1232434522     0.7811364874     0.0054774839
Bq         1.1213979269     0.8306278344     0.0123477537
Bq         1.1195524016     0.8801191814     0.0192180235
Bq         1.1177068764     0.9296105284     0.0260882932
Bq         1.1158613511     0.9791018754     0.0329585630
Bq         1.1140158258     1.0285932225     0.0398288328
Bq         1.1121703005     1.0780845695     0.0466991026
Bq         1.1103247753     1.1275759165     0.0535693724
Bq         1.1084792500     1.1770672635     0.0604396421
Bq         1.1066337247     1.2265586105     0.0673099119
Bq         1.1047881995     1.2760499576     0.0741801817
Bq         1.1029426742     1.3255413046     0.0810504515
Bq         1.1010971489     1.3750326516     0.0879207213
Bq         1.0992516237     1.4245239986     0.0947909910
Bq         1.0974060984     1.4740153456     0.1016612608
Bq         1.0955605731     1.5235066926     0.1085315306
Bq         1.0937150479     1.5729980397     0.1154018004
Bq         1.0918695226     1.6224893867     0.1222720702
Bq         1.0900239973     1.6719807337     0.1291423399
Bq         1.0881784721     1.7214720807     0.1360126097
Bq         1.0863329468     1.7709634277     0.1428828795
Bq         1.0844874215     1.8204547748     0.1497531493
Bq         1.0826418963     1.8699461218     0.1566234190
Bq         1.0807963710     1.9194374688     0.1634936888
Bq         1.0789508457     1.9689288158     0.1703639586
Bq         1.0771053205     2.0184201628     0.1772342284
Bq         1.0752597952     2.0679115098     0.1841044982
Bq         1.0734142699     2.1174028569     0.1909747679
Bq         1.0715687447     2.1668942039     0.1978450377
Bq         1.0697232194     2.2163855509     0.2047153075
Bq         1.3025638712    -2.7327491509    -0.4693402795
Bq         1.3007183459    -2.6832578039    -0.4624700098
Bq         1.2988728206    -2.6337664569    -0.4555997400
Bq         1.2970272954    -2.5842751098    -0.4487294702
Bq         1.2951817701    -2.5347837628    -0.4418592004
Bq         1.2933362448    -2.4852924158    -0.4349889306
Bq         1.2914907196    -2.4358010688    -0.4281186609
Bq         1.2896451943    -2.3863097218    -0.4212483911
Bq         1.2877996690    -2.3368183748    -0.4143781213
Bq         1.2859541438    -2.2873270277    -0.4075078515
Bq         1.2841086185    -2.2378356807    -0.4006375818
Bq         1.2822630932    -2.1883443337    -0.3937673120
Bq         1.2804175680    -2.1388529867    -0.3868970422
Bq         1.2785720427    -2.0893616397    -0.3800267724
Bq         1.2767265174    -2.0398702926    -0.3731565026
Bq         1.2748809922    -1.9903789456    -0.3662862329
Bq         1.2730354669    -1.9408875986    -0.3594159631
Bq         1.2711899416    -1.8913962516    -0.3525456933
Bq         1.2693444164    -1.8419049046    -0.3456754235
Bq         1.2674988911    -1.7924135576    -0.3388051537
Bq         1.2656533658    -1.7429222105    -0.3319348840
Bq         1.2638078406    -1.6934308635    -0.3250646142
Bq         1.2619623153    -1.6439395165    -0.3181943444
Bq         1.2601167900    -1.5944481695    -0.3113240746
Bq         1.2582712648    -1.5449568225    -0.3044538048
Bq         1.2564257395    -1.4954654754    -0.2975835351
Bq         1.2545802142    -1.4459741284    -0.2907132653
Bq         1.2527346890    -1.3964827814    -0.2838429955
Bq         1.2508891637    -1.3469914344    -0.2769727257
Bq         1.2490436384    -1.2975000874    -0.2701024559
Bq         1.2471981132    -1.2480087404    -0.2632321862
Bq         1.2453525879    -1.1985173933    -0.2563619164
Bq         1.2435070626    -1.1490260463    -0.2494916466
Bq         1.2416615373    -1.0995346993    -0.2426213768
Bq         1.2398160121    -1.0500433523    -0.2357511070
Bq         1.2379704868    -1.0005520053    -0.2288808373
Bq         1.2361249615    -0.9510606583    -0.2220105675
Bq         1.2342794363    -0.9015693112    -0.2151402977
Bq         1.2324339110    -0.8520779642    -0.2082700279
Bq         1.2305883857    -0.8025866172    -0.2013997581
Bq         1.2287428605    -0.7530952702    -0.1945294884
Bq         1.2268973352    -0.7036039232    -0.1876592186
Bq         1.2250518099    -0.6541125761    -0.1807889488
Bq         1.2232062847    -0.6046212291    -0.1739186790
Bq         1.2213607594    -0.5551298821    -0.1670484092
Bq         1.2195152341    -0.5056385351    -0.1601781395
Bq         1.2176697089    -0.4561471881    -0.1533078697
Bq         1.2158241836    -0.4066558411    -0.1464375999
Bq         1.2139786583    -0.3571644940    -0.1395673301
Bq         1.2121331331    -0.3076731470    -0.1326970604
Bq         1.2102876078    -0.2581818000    -0.1258267906
Bq         1.2084420825    -0.2086904530    -0.1189565208
Bq         1.2065965573    -0.1591991060    -0.1120862510
Bq         1.2047510320    -0.1097077589    -0.1052159812
Bq         1.2029055067    -0.0602164119    -0.0983457115
Bq         1.2010599815    -0.0107250649    -0.0914754417
Bq         1.1992144562     0.0387662821    -0.0846051719
Bq         1.1973689309     0.0882576291    -0.0777349021
Bq         1.1955234057     0.1377489761    -0.0708646323
Bq         1.1936778804     0.1872403232    -0.0639943626
Bq         1.1918323551     0.2367316702    -0.0571240928
Bq         1.1899868299     0.2862230172    -0.0502538230
Bq         1.1881413046     0.3357143642    -0.0433835532
Bq         1.1862957793     0.3852057112    -0.0365132834
Bq         1.1844502541     0.4346970583    -0.0296430137
Bq         1.1826047288     0.4841884053    -0.0227727439
Bq         1.1807592035     0.5336797523    -0.0159024741
Bq         1.1789136782     0.5831710993    -0.0090322043
Bq         1.1770681530     0.6326624463    -0.0021619345
Bq         1.1752226277     0.6821537933     0.0047083352
Bq         1.1733771024     0.7316451404     0.0115786050
Bq         1.1715315772     0.7811364874     0.0184488748

1
2
3
4
5
6
7
8
9
10
11
12
13
14
15
16
17
18
19
20
21
22
23
24
25
26
27
28
29
30
31
32
33
34
35
36
37
38
39
40
41
42
43
44
45
46
47
48
49
50
51
52
53
54
55
56
57
58
59
60
61
62
63
64
65
66
67
68
69
70
71
72
73
74
75
76
77
78
79
80
81
82
83
84
85
86
87
88
89
90
91
92
93
94
95
96
97
98
99
100
101
102
103
104
105
106
107
108
109
110
111
112
113
114
115
116
117
118
119
120
121
122
123
124
125
126
127
128
129
130
131
132
133
134
135
136
137
138
139
140
141
142
143
144
145
146
147
148
149
150
151
152
153
154
155
156
157
158
159
160
161
162
163
164
165
166
167
168
169
170
171
172
173
174
175
176
177
178
179
180
181
182
183
184
185
186
187
188
189
190
191
192
193
194
195
196
197
198
199
200
201
202
203
204
205
206
207
208
209
210
211
212
213
214
215
216
217
218
219
220
221
222
223
224
225
226
227
228
229
230
231
232
233
234
235
236

