%nproc=8
%mem=1000MB
# rb3lyp/6-311+g** NMR geom=connectivity

Title

0 1
C    -4.0500558   -0.5771862    0.8136712
H    -5.0263804   -1.0082727    1.0024760
C    -3.9381552    0.6617804    0.2400876
H    -4.8252424    1.2338890   -0.0111295
C    -2.6768410    1.2433246    0.0057578
C    -1.4974121    0.5051527    0.2848253
C    -1.6508332   -0.7338728    0.9404026
H    -0.7713646   -1.2730967    1.2633753
C    -2.8898548   -1.2624035    1.1994307
H    -2.9683706   -2.2124563    1.7152676
C    -2.5773185    2.5963696   -0.4192930
H    -3.4870728    3.1412239   -0.6474055
C    -1.3741895    3.2147896   -0.4364030
H    -1.2997315    4.2742019   -0.6578144
C    -0.1719488    2.4994090   -0.1734588
C    -0.2043917    1.1018437    0.0192689
C     1.0513491    3.2042560   -0.0676222
H     1.0427344    4.2819499   -0.1896997
C     2.1942091    2.5487446    0.2579577
H     3.1168527    3.0912848    0.4334727
C     2.2216473    1.1336562    0.2934990
C     1.0486931    0.3945528    0.0302412
C     3.4483363    0.4614633    0.5573939
H     4.3095794    1.0606054    0.8334846
C     3.5427346   -0.8855926    0.4749463
H     4.4731467   -1.3939704    0.7038822
C     2.4490052   -1.6474447   -0.0196319
C     1.2150704   -1.0057258   -0.3013573
C     0.2531113   -1.7434440   -1.0216591
H    -0.6541356   -1.2535051   -1.3462847
C     0.4494193   -3.0628597   -1.3413779
H    -0.3083162   -3.5944309   -1.9054060
C     1.6251726   -3.7207967   -0.9552541
H     1.7670048   -4.7687404   -1.1927019
C     2.6109872   -3.0144177   -0.3183050
H     3.5525612   -3.4902813   -0.0646367
Bq        -0.8732867836     1.2785092084     0.0490943278
Bq        -0.8728003065     1.3269791243     0.0368293131
Bq        -0.8723138294     1.3754490403     0.0245642984
Bq        -0.8718273523     1.4239189563     0.0122992837
Bq        -0.8713408751     1.4723888722     0.0000342690
Bq        -0.8708543980     1.5208587882    -0.0122307458
Bq        -0.8703679209     1.5693287042    -0.0244957605
Bq        -0.8698814438     1.6177986202    -0.0367607752
Bq        -0.8693949667     1.6662685361    -0.0490257899
Bq        -0.8689084896     1.7147384521    -0.0612908046
Bq        -0.8684220125     1.7632083681    -0.0735558193
Bq        -0.8679355354     1.8116782840    -0.0858208340
Bq        -0.8674490583     1.8601482000    -0.0980858487
Bq        -0.8669625811     1.9086181160    -0.1103508635
Bq        -0.8664761040     1.9570880319    -0.1226158782
Bq        -0.8659896269     2.0055579479    -0.1348808929
Bq        -0.8655031498     2.0540278639    -0.1471459076
Bq        -0.8650166727     2.1024977798    -0.1594109223
Bq        -0.8645301956     2.1509676958    -0.1716759370
Bq        -0.8640437185     2.1994376118    -0.1839409517
Bq        -0.8635572414     2.2479075278    -0.1962059665
Bq        -0.8630707642     2.2963774437    -0.2084709812
Bq        -0.8625842871     2.3448473597    -0.2207359959
Bq        -0.8620978100     2.3933172757    -0.2330010106
Bq        -0.8616113329     2.4417871916    -0.2452660253
Bq        -0.8611248558     2.4902571076    -0.2575310400
Bq        -0.8606383787     2.5387270236    -0.2697960547
Bq        -0.8601519016     2.5871969395    -0.2820610695
Bq        -0.8596654245     2.6356668555    -0.2943260842
Bq        -0.8591789473     2.6841367715    -0.3065910989
Bq        -0.8586924702     2.7326066875    -0.3188561136
Bq        -0.8582059931     2.7810766034    -0.3311211283
Bq        -0.8577195160     2.8295465194    -0.3433861430
Bq        -0.8572330389     2.8780164354    -0.3556511577
Bq        -0.8567465618     2.9264863513    -0.3679161724
Bq        -0.8562600847     2.9749562673    -0.3801811872
Bq        -0.8557736076     3.0234261833    -0.3924462019
Bq        -0.8552871304     3.0718960992    -0.4047112166
Bq        -0.8548006533     3.1203660152    -0.4169762313
Bq        -0.8543141762     3.1688359312    -0.4292412460
Bq        -0.8538276991     3.2173058471    -0.4415062607
Bq        -0.8533412220     3.2657757631    -0.4537712754
Bq        -0.8528547449     3.3142456791    -0.4660362902
Bq        -0.8523682678     3.3627155951    -0.4783013049
Bq        -0.8518817907     3.4111855110    -0.4905663196
Bq        -0.8513953135     3.4596554270    -0.5028313343
Bq        -0.8509088364     3.5081253430    -0.5150963490
Bq        -0.8504223593     3.5565952589    -0.5273613637
Bq        -0.8499358822     3.6050651749    -0.5396263784
Bq        -0.8494494051     3.6535350909    -0.5518913931
Bq        -0.8489629280     3.7020050068    -0.5641564079
Bq        -0.8484764509     3.7504749228    -0.5764214226
Bq        -0.8479899738     3.7989448388    -0.5886864373
Bq        -0.8475034967     3.8474147548    -0.6009514520
Bq        -0.8470170195     3.8958846707    -0.6132164667
Bq        -0.8465305424     3.9443545867    -0.6254814814
Bq        -0.8460440653     3.9928245027    -0.6377464961
Bq        -0.8455575882     4.0412944186    -0.6500115109
Bq        -0.8450711111     4.0897643346    -0.6622765256
Bq        -0.8445846340     4.1382342506    -0.6745415403
Bq        -0.8440981569     4.1867041665    -0.6868065550
Bq        -0.8436116798     4.2351740825    -0.6990715697
Bq        -0.8431252026     4.2836439985    -0.7113365844
Bq        -0.8418121979    -0.5633475985     0.5171465189
Bq        -0.8413257208    -0.5148776825     0.5048815041
Bq        -0.8408392437    -0.4664077665     0.4926164894
Bq        -0.8403527666    -0.4179378506     0.4803514747
Bq        -0.8398662895    -0.3694679346     0.4680864600
Bq        -0.8393798124    -0.3209980186     0.4558214453
Bq        -0.8388933353    -0.2725281027     0.4435564306
Bq        -0.8384068582    -0.2240581867     0.4312914159
Bq        -0.8379203810    -0.1755882707     0.4190264012
Bq        -0.8374339039    -0.1271183548     0.4067613864
Bq        -0.8369474268    -0.0786484388     0.3944963717
Bq        -0.8364609497    -0.0301785228     0.3822313570
Bq        -0.8359744726     0.0182913932     0.3699663423
Bq        -0.8354879955     0.0667613091     0.3577013276
Bq        -0.8350015184     0.1152312251     0.3454363129
Bq        -0.8345150413     0.1637011411     0.3331712982
Bq        -0.8340285642     0.2121710570     0.3209062834
Bq        -0.8335420870     0.2606409730     0.3086412687
Bq        -0.8330556099     0.3091108890     0.2963762540
Bq        -0.8325691328     0.3575808049     0.2841112393
Bq        -0.8320826557     0.4060507209     0.2718462246
Bq        -0.8315961786     0.4545206369     0.2595812099
Bq        -0.8311097015     0.5029905529     0.2473161952
Bq        -0.8306232244     0.5514604688     0.2350511805
Bq        -0.8301367473     0.5999303848     0.2227861657
Bq        -0.8296502701     0.6484003008     0.2105211510
Bq        -0.8291637930     0.6968702167     0.1982561363
Bq        -0.8286773159     0.7453401327     0.1859911216
Bq        -0.8281908388     0.7938100487     0.1737261069
Bq        -0.8277043617     0.8422799646     0.1614610922
Bq        -0.8272178846     0.8907498806     0.1491960775
Bq        -0.8267314075     0.9392197966     0.1369310627
Bq        -0.8262449304     0.9876897125     0.1246660480
Bq        -0.8257584532     1.0361596285     0.1124010333
Bq        -0.8252719761     1.0846295445     0.1001360186
Bq        -0.8247854990     1.1330994605     0.0878710039
Bq        -0.8242990219     1.1815693764     0.0756059892
Bq        -0.8238125448     1.2300392924     0.0633409745
Bq        -0.8233260677     1.2785092084     0.0510759597
Bq        -0.8228395906     1.3269791243     0.0388109450
Bq        -0.8223531135     1.3754490403     0.0265459303
Bq        -0.8218666363     1.4239189563     0.0142809156
Bq        -0.8213801592     1.4723888722     0.0020159009
Bq        -0.8208936821     1.5208587882    -0.0102491138
Bq        -0.8204072050     1.5693287042    -0.0225141285
Bq        -0.8199207279     1.6177986202    -0.0347791432
Bq        -0.8194342508     1.6662685361    -0.0470441580
Bq        -0.8189477737     1.7147384521    -0.0593091727
Bq        -0.8184612966     1.7632083681    -0.0715741874
Bq        -0.8179748194     1.8116782840    -0.0838392021
Bq        -0.8174883423     1.8601482000    -0.0961042168
Bq        -0.8170018652     1.9086181160    -0.1083692315
Bq        -0.8165153881     1.9570880319    -0.1206342462
Bq        -0.8160289110     2.0055579479    -0.1328992610
Bq        -0.8155424339     2.0540278639    -0.1451642757
Bq        -0.8150559568     2.1024977798    -0.1574292904
Bq        -0.8145694797     2.1509676958    -0.1696943051
Bq        -0.8140830026     2.1994376118    -0.1819593198
Bq        -0.8135965254     2.2479075278    -0.1942243345
Bq        -0.8131100483     2.2963774437    -0.2064893492
Bq        -0.8126235712     2.3448473597    -0.2187543640
Bq        -0.8121370941     2.3933172757    -0.2310193787
Bq        -0.8116506170     2.4417871916    -0.2432843934
Bq        -0.8111641399     2.4902571076    -0.2555494081
Bq        -0.8106776628     2.5387270236    -0.2678144228
Bq        -0.8101911857     2.5871969395    -0.2800794375
Bq        -0.8097047085     2.6356668555    -0.2923444522
Bq        -0.8092182314     2.6841367715    -0.3046094669
Bq        -0.8087317543     2.7326066875    -0.3168744817
Bq        -0.8082452772     2.7810766034    -0.3291394964
Bq        -0.8077588001     2.8295465194    -0.3414045111
Bq        -0.8072723230     2.8780164354    -0.3536695258
Bq        -0.8067858459     2.9264863513    -0.3659345405
Bq        -0.8062993688     2.9749562673    -0.3781995552
Bq        -0.8058128916     3.0234261833    -0.3904645699
Bq        -0.8053264145     3.0718960992    -0.4027295847
Bq        -0.8048399374     3.1203660152    -0.4149945994
Bq        -0.8043534603     3.1688359312    -0.4272596141
Bq        -0.8038669832     3.2173058471    -0.4395246288
Bq        -0.8033805061     3.2657757631    -0.4517896435
Bq        -0.8028940290     3.3142456791    -0.4640546582
Bq        -0.8024075519     3.3627155951    -0.4763196729
Bq        -0.8019210747     3.4111855110    -0.4885846876
Bq        -0.8014345976     3.4596554270    -0.5008497024
Bq        -0.8009481205     3.5081253430    -0.5131147171
Bq        -0.8004616434     3.5565952589    -0.5253797318
Bq        -0.7999751663     3.6050651749    -0.5376447465
Bq        -0.7994886892     3.6535350909    -0.5499097612
Bq        -0.7990022121     3.7020050068    -0.5621747759
Bq        -0.7985157350     3.7504749228    -0.5744397906
Bq        -0.7980292578     3.7989448388    -0.5867048054
Bq        -0.7975427807     3.8474147548    -0.5989698201
Bq        -0.7970563036     3.8958846707    -0.6112348348
Bq        -0.7965698265     3.9443545867    -0.6234998495
Bq        -0.7960833494     3.9928245027    -0.6357648642
Bq        -0.7955968723     4.0412944186    -0.6480298789
Bq        -0.7951103952     4.0897643346    -0.6602948936
Bq        -0.7946239181     4.1382342506    -0.6725599084
Bq        -0.7941374409     4.1867041665    -0.6848249231
Bq        -0.7936509638     4.2351740825    -0.6970899378
Bq        -0.7931644867     4.2836439985    -0.7093549525
Bq        -0.7918514820    -0.5633475985     0.5191281508
Bq        -0.7913650049    -0.5148776825     0.5068631361
Bq        -0.7908785278    -0.4664077665     0.4945981214
Bq        -0.7903920507    -0.4179378506     0.4823331067
Bq        -0.7899055736    -0.3694679346     0.4700680919
Bq        -0.7894190965    -0.3209980186     0.4578030772
Bq        -0.7889326194    -0.2725281027     0.4455380625
Bq        -0.7884461422    -0.2240581867     0.4332730478
Bq        -0.7879596651    -0.1755882707     0.4210080331
Bq        -0.7874731880    -0.1271183548     0.4087430184
Bq        -0.7869867109    -0.0786484388     0.3964780037
Bq        -0.7865002338    -0.0301785228     0.3842129889
Bq        -0.7860137567     0.0182913932     0.3719479742
Bq        -0.7855272796     0.0667613091     0.3596829595
Bq        -0.7850408025     0.1152312251     0.3474179448
Bq        -0.7845543253     0.1637011411     0.3351529301
Bq        -0.7840678482     0.2121710570     0.3228879154
Bq        -0.7835813711     0.2606409730     0.3106229007
Bq        -0.7830948940     0.3091108890     0.2983578860
Bq        -0.7826084169     0.3575808049     0.2860928712
Bq        -0.7821219398     0.4060507209     0.2738278565
Bq        -0.7816354627     0.4545206369     0.2615628418
Bq        -0.7811489856     0.5029905529     0.2492978271
Bq        -0.7806625084     0.5514604688     0.2370328124
Bq        -0.7801760313     0.5999303848     0.2247677977
Bq        -0.7796895542     0.6484003008     0.2125027830
Bq        -0.7792030771     0.6968702167     0.2002377682
Bq        -0.7787166000     0.7453401327     0.1879727535
Bq        -0.7782301229     0.7938100487     0.1757077388
Bq        -0.7777436458     0.8422799646     0.1634427241
Bq        -0.7772571687     0.8907498806     0.1511777094
Bq        -0.7767706916     0.9392197966     0.1389126947
Bq        -0.7762842144     0.9876897125     0.1266476800
Bq        -0.7757977373     1.0361596285     0.1143826652
Bq        -0.7753112602     1.0846295445     0.1021176505
Bq        -0.7748247831     1.1330994605     0.0898526358

1
2
3
4
5
6
7
8
9
10
11
12
13
14
15
16
17
18
19
20
21
22
23
24
25
26
27
28
29
30
31
32
33
34
35
36
37
38
39
40
41
42
43
44
45
46
47
48
49
50
51
52
53
54
55
56
57
58
59
60
61
62
63
64
65
66
67
68
69
70
71
72
73
74
75
76
77
78
79
80
81
82
83
84
85
86
87
88
89
90
91
92
93
94
95
96
97
98
99
100
101
102
103
104
105
106
107
108
109
110
111
112
113
114
115
116
117
118
119
120
121
122
123
124
125
126
127
128
129
130
131
132
133
134
135
136
137
138
139
140
141
142
143
144
145
146
147
148
149
150
151
152
153
154
155
156
157
158
159
160
161
162
163
164
165
166
167
168
169
170
171
172
173
174
175
176
177
178
179
180
181
182
183
184
185
186
187
188
189
190
191
192
193
194
195
196
197
198
199
200
201
202
203
204
205
206
207
208
209
210
211
212
213
214
215
216
217
218
219
220
221
222
223
224
225
226
227
228
229
230
231
232
233
234
235
236

