%nproc=8
%mem=1000MB
# rb3lyp/6-311+g** NMR geom=connectivity

Title

0 1
C    -4.0500558   -0.5771862    0.8136712
H    -5.0263804   -1.0082727    1.0024760
C    -3.9381552    0.6617804    0.2400876
H    -4.8252424    1.2338890   -0.0111295
C    -2.6768410    1.2433246    0.0057578
C    -1.4974121    0.5051527    0.2848253
C    -1.6508332   -0.7338728    0.9404026
H    -0.7713646   -1.2730967    1.2633753
C    -2.8898548   -1.2624035    1.1994307
H    -2.9683706   -2.2124563    1.7152676
C    -2.5773185    2.5963696   -0.4192930
H    -3.4870728    3.1412239   -0.6474055
C    -1.3741895    3.2147896   -0.4364030
H    -1.2997315    4.2742019   -0.6578144
C    -0.1719488    2.4994090   -0.1734588
C    -0.2043917    1.1018437    0.0192689
C     1.0513491    3.2042560   -0.0676222
H     1.0427344    4.2819499   -0.1896997
C     2.1942091    2.5487446    0.2579577
H     3.1168527    3.0912848    0.4334727
C     2.2216473    1.1336562    0.2934990
C     1.0486931    0.3945528    0.0302412
C     3.4483363    0.4614633    0.5573939
H     4.3095794    1.0606054    0.8334846
C     3.5427346   -0.8855926    0.4749463
H     4.4731467   -1.3939704    0.7038822
C     2.4490052   -1.6474447   -0.0196319
C     1.2150704   -1.0057258   -0.3013573
C     0.2531113   -1.7434440   -1.0216591
H    -0.6541356   -1.2535051   -1.3462847
C     0.4494193   -3.0628597   -1.3413779
H    -0.3083162   -3.5944309   -1.9054060
C     1.6251726   -3.7207967   -0.9552541
H     1.7670048   -4.7687404   -1.1927019
C     2.6109872   -3.0144177   -0.3183050
H     3.5525612   -3.4902813   -0.0646367
Bq         0.2861636919     2.5128982243    -0.0827512086
Bq         0.2865197589     2.5628378320    -0.0851820109
Bq         0.2868758258     2.6127774397    -0.0876128133
Bq         0.2872318928     2.6627170474    -0.0900436157
Bq         0.2875879598     2.7126566551    -0.0924744181
Bq         0.2879440267     2.7625962627    -0.0949052205
Bq         0.2883000937     2.8125358704    -0.0973360229
Bq         0.2886561607     2.8624754781    -0.0997668252
Bq         0.2890122277     2.9124150858    -0.1021976276
Bq         0.2893682946     2.9623546935    -0.1046284300
Bq         0.2897243616     3.0122943012    -0.1070592324
Bq         0.2900804286     3.0622339089    -0.1094900348
Bq         0.2904364955     3.1121735166    -0.1119208372
Bq         0.2907925625     3.1621131243    -0.1143516395
Bq         0.2911486295     3.2120527319    -0.1167824419
Bq         0.2915046965     3.2619923396    -0.1192132443
Bq         0.2918607634     3.3119319473    -0.1216440467
Bq         0.2922168304     3.3618715550    -0.1240748491
Bq         0.2925728974     3.4118111627    -0.1265056515
Bq         0.2929289643     3.4617507704    -0.1289364538
Bq         0.2932850313     3.5116903781    -0.1313672562
Bq         0.2936410983     3.5616299858    -0.1337980586
Bq         0.2939971652     3.6115695935    -0.1362288610
Bq         0.2943532322     3.6615092011    -0.1386596634
Bq         0.2947092992     3.7114488088    -0.1410904658
Bq         0.2950653662     3.7613884165    -0.1435212681
Bq         0.2954214331     3.8113280242    -0.1459520705
Bq         0.2957775001     3.8612676319    -0.1483828729
Bq         0.2961335671     3.9112072396    -0.1508136753
Bq         0.2964896340     3.9611468473    -0.1532444777
Bq         0.2968457010     4.0110864550    -0.1556752801
Bq         0.2972017680     4.0610260627    -0.1581060824
Bq         0.2975578350     4.1109656703    -0.1605368848
Bq         0.2979139019     4.1609052780    -0.1629676872
Bq         0.2982699689     4.2108448857    -0.1653984896
Bq         0.2986260359     4.2607844934    -0.1678292920
Bq         0.2989821028     4.3107241011    -0.1702600943
Bq         0.3128474677    -0.6832366678     0.0800668734
Bq         0.3132035347    -0.6332970601     0.0776360710
Bq         0.3135596016    -0.5833574524     0.0752052687
Bq         0.3139156686    -0.5334178447     0.0727744663
Bq         0.3142717356    -0.4834782370     0.0703436639
Bq         0.3146278025    -0.4335386293     0.0679128615
Bq         0.3149838695    -0.3835990216     0.0654820591
Bq         0.3153399365    -0.3336594139     0.0630512567
Bq         0.3156960035    -0.2837198063     0.0606204544
Bq         0.3160520704    -0.2337801986     0.0581896520
Bq         0.3164081374    -0.1838405909     0.0557588496
Bq         0.3167642044    -0.1339009832     0.0533280472
Bq         0.3171202713    -0.0839613755     0.0508972448
Bq         0.3174763383    -0.0340217678     0.0484664424
Bq         0.3178324053     0.0159178399     0.0460356401
Bq         0.3181884723     0.0658574476     0.0436048377
Bq         0.3185445392     0.1157970553     0.0411740353
Bq         0.3189006062     0.1657366629     0.0387432329
Bq         0.3192566732     0.2156762706     0.0363124305
Bq         0.3196127401     0.2656158783     0.0338816281
Bq         0.3199688071     0.3155554860     0.0314508258
Bq         0.3203248741     0.3654950937     0.0290200234
Bq         0.3206809410     0.4154347014     0.0265892210
Bq         0.3210370080     0.4653743091     0.0241584186
Bq         0.3213930750     0.5153139168     0.0217276162
Bq         0.3217491420     0.5652535245     0.0192968138
Bq         0.3221052089     0.6151931321     0.0168660115
Bq         0.3224612759     0.6651327398     0.0144352091
Bq         0.3228173429     0.7150723475     0.0120044067
Bq         0.3231734098     0.7650119552     0.0095736043
Bq         0.3235294768     0.8149515629     0.0071428019
Bq         0.3238855438     0.8648911706     0.0047119996
Bq         0.3242416108     0.9148307783     0.0022811972
Bq         0.3245976777     0.9647703860    -0.0001496052
Bq         0.3249537447     1.0147099936    -0.0025804076
Bq         0.3253098117     1.0646496013    -0.0050112100
Bq         0.3256658786     1.1145892090    -0.0074420124
Bq         0.3260219456     1.1645288167    -0.0098728147
Bq         0.3263780126     1.2144684244    -0.0123036171
Bq         0.3267340796     1.2644080321    -0.0147344195
Bq         0.3270901465     1.3143476398    -0.0171652219
Bq         0.3274462135     1.3642872475    -0.0195960243
Bq         0.3278022805     1.4142268552    -0.0220268267
Bq         0.3281583474     1.4641664628    -0.0244576290
Bq         0.3285144144     1.5141060705    -0.0268884314
Bq         0.3288704814     1.5640456782    -0.0293192338
Bq         0.3292265483     1.6139852859    -0.0317500362
Bq         0.3295826153     1.6639248936    -0.0341808386
Bq         0.3299386823     1.7138645013    -0.0366116410
Bq         0.3302947493     1.7638041090    -0.0390424433
Bq         0.3306508162     1.8137437167    -0.0414732457
Bq         0.3310068832     1.8636833244    -0.0439040481
Bq         0.3313629502     1.9136229320    -0.0463348505
Bq         0.3317190171     1.9635625397    -0.0487656529
Bq         0.3320750841     2.0135021474    -0.0511964553
Bq         0.3324311511     2.0634417551    -0.0536272576
Bq         0.3327872181     2.1133813628    -0.0560580600
Bq         0.3331432850     2.1633209705    -0.0584888624
Bq         0.3334993520     2.2132605782    -0.0609196648
Bq         0.3338554190     2.2632001859    -0.0633504672
Bq         0.3342114859     2.3131397936    -0.0657812696
Bq         0.3345675529     2.3630794012    -0.0682120719
Bq         0.3349236199     2.4130190089    -0.0706428743
Bq         0.3352796869     2.4629586166    -0.0730736767
Bq         0.3356357538     2.5128982243    -0.0755044791
Bq         0.3359918208     2.5628378320    -0.0779352815
Bq         0.3363478878     2.6127774397    -0.0803660839
Bq         0.3367039547     2.6627170474    -0.0827968862
Bq         0.3370600217     2.7126566551    -0.0852276886
Bq         0.3374160887     2.7625962627    -0.0876584910
Bq         0.3377721556     2.8125358704    -0.0900892934
Bq         0.3381282226     2.8624754781    -0.0925200958
Bq         0.3384842896     2.9124150858    -0.0949508982
Bq         0.3388403566     2.9623546935    -0.0973817005
Bq         0.3391964235     3.0122943012    -0.0998125029
Bq         0.3395524905     3.0622339089    -0.1022433053
Bq         0.3399085575     3.1121735166    -0.1046741077
Bq         0.3402646244     3.1621131243    -0.1071049101
Bq         0.3406206914     3.2120527319    -0.1095357125
Bq         0.3409767584     3.2619923396    -0.1119665148
Bq         0.3413328254     3.3119319473    -0.1143973172
Bq         0.3416888923     3.3618715550    -0.1168281196
Bq         0.3420449593     3.4118111627    -0.1192589220
Bq         0.3424010263     3.4617507704    -0.1216897244
Bq         0.3427570932     3.5116903781    -0.1241205268
Bq         0.3431131602     3.5616299858    -0.1265513291
Bq         0.3434692272     3.6115695935    -0.1289821315
Bq         0.3438252942     3.6615092011    -0.1314129339
Bq         0.3441813611     3.7114488088    -0.1338437363
Bq         0.3445374281     3.7613884165    -0.1362745387
Bq         0.3448934951     3.8113280242    -0.1387053411
Bq         0.3452495620     3.8612676319    -0.1411361434
Bq         0.3456056290     3.9112072396    -0.1435669458
Bq         0.3459616960     3.9611468473    -0.1459977482
Bq         0.3463177629     4.0110864550    -0.1484285506
Bq         0.3466738299     4.0610260627    -0.1508593530
Bq         0.3470298969     4.1109656703    -0.1532901554
Bq         0.3473859639     4.1609052780    -0.1557209577
Bq         0.3477420308     4.2108448857    -0.1581517601
Bq         0.3480980978     4.2607844934    -0.1605825625
Bq         0.3484541648     4.3107241011    -0.1630133649
Bq         0.3623195296    -0.6832366678     0.0873136029
Bq         0.3626755966    -0.6332970601     0.0848828005
Bq         0.3630316636    -0.5833574524     0.0824519981
Bq         0.3633877305    -0.5334178447     0.0800211957
Bq         0.3637437975    -0.4834782370     0.0775903934
Bq         0.3640998645    -0.4335386293     0.0751595910
Bq         0.3644559315    -0.3835990216     0.0727287886
Bq         0.3648119984    -0.3336594139     0.0702979862
Bq         0.3651680654    -0.2837198063     0.0678671838
Bq         0.3655241324    -0.2337801986     0.0654363814
Bq         0.3658801993    -0.1838405909     0.0630055791
Bq         0.3662362663    -0.1339009832     0.0605747767
Bq         0.3665923333    -0.0839613755     0.0581439743
Bq         0.3669484002    -0.0340217678     0.0557131719
Bq         0.3673044672     0.0159178399     0.0532823695
Bq         0.3676605342     0.0658574476     0.0508515671
Bq         0.3680166012     0.1157970553     0.0484207648
Bq         0.3683726681     0.1657366629     0.0459899624
Bq         0.3687287351     0.2156762706     0.0435591600
Bq         0.3690848021     0.2656158783     0.0411283576
Bq         0.3694408690     0.3155554860     0.0386975552
Bq         0.3697969360     0.3654950937     0.0362667528
Bq         0.3701530030     0.4154347014     0.0338359505
Bq         0.3705090700     0.4653743091     0.0314051481
Bq         0.3708651369     0.5153139168     0.0289743457
Bq         0.3712212039     0.5652535245     0.0265435433
Bq         0.3715772709     0.6151931321     0.0241127409
Bq         0.3719333378     0.6651327398     0.0216819385
Bq         0.3722894048     0.7150723475     0.0192511362
Bq         0.3726454718     0.7650119552     0.0168203338
Bq         0.3730015388     0.8149515629     0.0143895314
Bq         0.3733576057     0.8648911706     0.0119587290
Bq         0.3737136727     0.9148307783     0.0095279266
Bq         0.3740697397     0.9647703860     0.0070971242
Bq         0.3744258066     1.0147099936     0.0046663219
Bq         0.3747818736     1.0646496013     0.0022355195
Bq         0.3751379406     1.1145892090    -0.0001952829
Bq         0.3754940075     1.1645288167    -0.0026260853
Bq         0.3758500745     1.2144684244    -0.0050568877
Bq         0.3762061415     1.2644080321    -0.0074876901
Bq         0.3765622085     1.3143476398    -0.0099184924
Bq         0.3769182754     1.3642872475    -0.0123492948
Bq         0.3772743424     1.4142268552    -0.0147800972
Bq         0.3776304094     1.4641664628    -0.0172108996
Bq         0.3779864763     1.5141060705    -0.0196417020
Bq         0.3783425433     1.5640456782    -0.0220725044
Bq         0.3786986103     1.6139852859    -0.0245033067
Bq         0.3790546773     1.6639248936    -0.0269341091
Bq         0.3794107442     1.7138645013    -0.0293649115
Bq         0.3797668112     1.7638041090    -0.0317957139
Bq         0.3801228782     1.8137437167    -0.0342265163
Bq         0.3804789451     1.8636833244    -0.0366573187
Bq         0.3808350121     1.9136229320    -0.0390881210
Bq         0.3811910791     1.9635625397    -0.0415189234
Bq         0.3815471461     2.0135021474    -0.0439497258
Bq         0.3819032130     2.0634417551    -0.0463805282
Bq         0.3822592800     2.1133813628    -0.0488113306
Bq         0.3826153470     2.1633209705    -0.0512421330
Bq         0.3829714139     2.2132605782    -0.0536729353
Bq         0.3833274809     2.2632001859    -0.0561037377
Bq         0.3836835479     2.3131397936    -0.0585345401
Bq         0.3840396148     2.3630794012    -0.0609653425

1
2
3
4
5
6
7
8
9
10
11
12
13
14
15
16
17
18
19
20
21
22
23
24
25
26
27
28
29
30
31
32
33
34
35
36
37
38
39
40
41
42
43
44
45
46
47
48
49
50
51
52
53
54
55
56
57
58
59
60
61
62
63
64
65
66
67
68
69
70
71
72
73
74
75
76
77
78
79
80
81
82
83
84
85
86
87
88
89
90
91
92
93
94
95
96
97
98
99
100
101
102
103
104
105
106
107
108
109
110
111
112
113
114
115
116
117
118
119
120
121
122
123
124
125
126
127
128
129
130
131
132
133
134
135
136
137
138
139
140
141
142
143
144
145
146
147
148
149
150
151
152
153
154
155
156
157
158
159
160
161
162
163
164
165
166
167
168
169
170
171
172
173
174
175
176
177
178
179
180
181
182
183
184
185
186
187
188
189
190
191
192
193
194
195
196
197
198
199
200
201
202
203
204
205
206
207
208
209
210
211
212
213
214
215
216
217
218
219
220
221
222
223
224
225
226
227
228
229
230
231
232
233
234
235
236

