%nproc=8
%mem=1000MB
# rb3lyp/6-311+g** NMR geom=connectivity

Title

0 1
C    -4.0500558   -0.5771862    0.8136712
H    -5.0263804   -1.0082727    1.0024760
C    -3.9381552    0.6617804    0.2400876
H    -4.8252424    1.2338890   -0.0111295
C    -2.6768410    1.2433246    0.0057578
C    -1.4974121    0.5051527    0.2848253
C    -1.6508332   -0.7338728    0.9404026
H    -0.7713646   -1.2730967    1.2633753
C    -2.8898548   -1.2624035    1.1994307
H    -2.9683706   -2.2124563    1.7152676
C    -2.5773185    2.5963696   -0.4192930
H    -3.4870728    3.1412239   -0.6474055
C    -1.3741895    3.2147896   -0.4364030
H    -1.2997315    4.2742019   -0.6578144
C    -0.1719488    2.4994090   -0.1734588
C    -0.2043917    1.1018437    0.0192689
C     1.0513491    3.2042560   -0.0676222
H     1.0427344    4.2819499   -0.1896997
C     2.1942091    2.5487446    0.2579577
H     3.1168527    3.0912848    0.4334727
C     2.2216473    1.1336562    0.2934990
C     1.0486931    0.3945528    0.0302412
C     3.4483363    0.4614633    0.5573939
H     4.3095794    1.0606054    0.8334846
C     3.5427346   -0.8855926    0.4749463
H     4.4731467   -1.3939704    0.7038822
C     2.4490052   -1.6474447   -0.0196319
C     1.2150704   -1.0057258   -0.3013573
C     0.2531113   -1.7434440   -1.0216591
H    -0.6541356   -1.2535051   -1.3462847
C     0.4494193   -3.0628597   -1.3413779
H    -0.3083162   -3.5944309   -1.9054060
C     1.6251726   -3.7207967   -0.9552541
H     1.7670048   -4.7687404   -1.1927019
C     2.6109872   -3.0144177   -0.3183050
H     3.5525612   -3.4902813   -0.0646367
Bq         0.8088373357    -0.3694679346     0.5334803138
Bq         0.8093238129    -0.3209980186     0.5212152991
Bq         0.8098102900    -0.2725281027     0.5089502843
Bq         0.8102967671    -0.2240581867     0.4966852696
Bq         0.8107832442    -0.1755882707     0.4844202549
Bq         0.8112697213    -0.1271183548     0.4721552402
Bq         0.8117561984    -0.0786484388     0.4598902255
Bq         0.8122426755    -0.0301785228     0.4476252108
Bq         0.8127291526     0.0182913932     0.4353601961
Bq         0.8132156298     0.0667613091     0.4230951813
Bq         0.8137021069     0.1152312251     0.4108301666
Bq         0.8141885840     0.1637011411     0.3985651519
Bq         0.8146750611     0.2121710570     0.3863001372
Bq         0.8151615382     0.2606409730     0.3740351225
Bq         0.8156480153     0.3091108890     0.3617701078
Bq         0.8161344924     0.3575808049     0.3495050931
Bq         0.8166209695     0.4060507209     0.3372400783
Bq         0.8171074467     0.4545206369     0.3249750636
Bq         0.8175939238     0.5029905529     0.3127100489
Bq         0.8180804009     0.5514604688     0.3004450342
Bq         0.8185668780     0.5999303848     0.2881800195
Bq         0.8190533551     0.6484003008     0.2759150048
Bq         0.8195398322     0.6968702167     0.2636499901
Bq         0.8200263093     0.7453401327     0.2513849754
Bq         0.8205127864     0.7938100487     0.2391199606
Bq         0.8209992636     0.8422799646     0.2268549459
Bq         0.8214857407     0.8907498806     0.2145899312
Bq         0.8219722178     0.9392197966     0.2023249165
Bq         0.8224586949     0.9876897125     0.1900599018
Bq         0.8229451720     1.0361596285     0.1777948871
Bq         0.8234316491     1.0846295445     0.1655298724
Bq         0.8239181262     1.1330994605     0.1532648576
Bq         0.8244046033     1.1815693764     0.1409998429
Bq         0.8248910804     1.2300392924     0.1287348282
Bq         0.8253775576     1.2785092084     0.1164698135
Bq         0.8258640347     1.3269791243     0.1042047988
Bq         0.8263505118     1.3754490403     0.0919397841
Bq         0.8268369889     1.4239189563     0.0796747694
Bq         0.8273234660     1.4723888722     0.0674097547
Bq         0.8278099431     1.5208587882     0.0551447399
Bq         0.8282964202     1.5693287042     0.0428797252
Bq         0.8287828973     1.6177986202     0.0306147105
Bq         0.8292693745     1.6662685361     0.0183496958
Bq         0.8297558516     1.7147384521     0.0060846811
Bq         0.8302423287     1.7632083681    -0.0061803336
Bq         0.8307288058     1.8116782840    -0.0184453483
Bq         0.8312152829     1.8601482000    -0.0307103631
Bq         0.8317017600     1.9086181160    -0.0429753778
Bq         0.8321882371     1.9570880319    -0.0552403925
Bq         0.8326747142     2.0055579479    -0.0675054072
Bq         0.8331611914     2.0540278639    -0.0797704219
Bq         0.8336476685     2.1024977798    -0.0920354366
Bq         0.8341341456     2.1509676958    -0.1043004513
Bq         0.8346206227     2.1994376118    -0.1165654661
Bq         0.8351070998     2.2479075278    -0.1288304808
Bq         0.8355935769     2.2963774437    -0.1410954955
Bq         0.8360800540     2.3448473597    -0.1533605102
Bq         0.8365665311     2.3933172757    -0.1656255249
Bq         0.8370530083     2.4417871916    -0.1778905396
Bq         0.8375394854     2.4902571076    -0.1901555543
Bq         0.8380259625     2.5387270236    -0.2024205690
Bq         0.8385124396     2.5871969395    -0.2146855838
Bq         0.8389989167     2.6356668555    -0.2269505985
Bq         0.8394853938     2.6841367715    -0.2392156132
Bq         0.8399718709     2.7326066875    -0.2514806279
Bq         0.8404583480     2.7810766034    -0.2637456426
Bq         0.8409448252     2.8295465194    -0.2760106573
Bq         0.8414313023     2.8780164354    -0.2882756720
Bq         0.8419177794     2.9264863513    -0.3005406868
Bq         0.8424042565     2.9749562673    -0.3128057015
Bq         0.8428907336     3.0234261833    -0.3250707162
Bq         0.8433772107     3.0718960992    -0.3373357309
Bq         0.8438636878     3.1203660152    -0.3496007456
Bq         0.8443501649     3.1688359312    -0.3618657603
Bq         0.8448366420     3.2173058471    -0.3741307750
Bq         0.8453231192     3.2657757631    -0.3863957898
Bq         0.8458095963     3.3142456791    -0.3986608045
Bq         0.8462960734     3.3627155951    -0.4109258192
Bq         0.8467825505     3.4111855110    -0.4231908339
Bq         0.8472690276     3.4596554270    -0.4354558486
Bq         0.8477555047     3.5081253430    -0.4477208633
Bq         0.8482419818     3.5565952589    -0.4599858780
Bq         0.8487284589     3.6050651749    -0.4722508927
Bq         0.8492149361     3.6535350909    -0.4845159075
Bq         0.8497014132     3.7020050068    -0.4967809222
Bq         0.8501878903     3.7504749228    -0.5090459369
Bq         0.8506743674     3.7989448388    -0.5213109516
Bq         0.8511608445     3.8474147548    -0.5335759663
Bq         0.8516473216     3.8958846707    -0.5458409810
Bq         0.8521337987     3.9443545867    -0.5581059957
Bq         0.8526202758     3.9928245027    -0.5703710105
Bq         0.8531067530     4.0412944186    -0.5826360252
Bq         0.8535932301     4.0897643346    -0.5949010399
Bq         0.8540797072     4.1382342506    -0.6071660546
Bq         0.8545661843     4.1867041665    -0.6194310693
Bq         0.8550526614     4.2351740825    -0.6316960840
Bq         0.8555391385     4.2836439985    -0.6439610987
Bq         0.8568521432    -0.5633475985     0.5845220046
Bq         0.8573386203    -0.5148776825     0.5722569898
Bq         0.8578250974    -0.4664077665     0.5599919751
Bq         0.8583115745    -0.4179378506     0.5477269604
Bq         0.8587980517    -0.3694679346     0.5354619457
Bq         0.8592845288    -0.3209980186     0.5231969310
Bq         0.8597710059    -0.2725281027     0.5109319163
Bq         0.8602574830    -0.2240581867     0.4986669016
Bq         0.8607439601    -0.1755882707     0.4864018868
Bq         0.8612304372    -0.1271183548     0.4741368721
Bq         0.8617169143    -0.0786484388     0.4618718574
Bq         0.8622033914    -0.0301785228     0.4496068427
Bq         0.8626898686     0.0182913932     0.4373418280
Bq         0.8631763457     0.0667613091     0.4250768133
Bq         0.8636628228     0.1152312251     0.4128117986
Bq         0.8641492999     0.1637011411     0.4005467838
Bq         0.8646357770     0.2121710570     0.3882817691
Bq         0.8651222541     0.2606409730     0.3760167544
Bq         0.8656087312     0.3091108890     0.3637517397
Bq         0.8660952083     0.3575808049     0.3514867250
Bq         0.8665816855     0.4060507209     0.3392217103
Bq         0.8670681626     0.4545206369     0.3269566956
Bq         0.8675546397     0.5029905529     0.3146916809
Bq         0.8680411168     0.5514604688     0.3024266661
Bq         0.8685275939     0.5999303848     0.2901616514
Bq         0.8690140710     0.6484003008     0.2778966367
Bq         0.8695005481     0.6968702167     0.2656316220
Bq         0.8699870252     0.7453401327     0.2533666073
Bq         0.8704735024     0.7938100487     0.2411015926
Bq         0.8709599795     0.8422799646     0.2288365779
Bq         0.8714464566     0.8907498806     0.2165715631
Bq         0.8719329337     0.9392197966     0.2043065484
Bq         0.8724194108     0.9876897125     0.1920415337
Bq         0.8729058879     1.0361596285     0.1797765190
Bq         0.8733923650     1.0846295445     0.1675115043
Bq         0.8738788421     1.1330994605     0.1552464896
Bq         0.8743653193     1.1815693764     0.1429814749
Bq         0.8748517964     1.2300392924     0.1307164602
Bq         0.8753382735     1.2785092084     0.1184514454
Bq         0.8758247506     1.3269791243     0.1061864307
Bq         0.8763112277     1.3754490403     0.0939214160
Bq         0.8767977048     1.4239189563     0.0816564013
Bq         0.8772841819     1.4723888722     0.0693913866
Bq         0.8777706590     1.5208587882     0.0571263719
Bq         0.8782571362     1.5693287042     0.0448613572
Bq         0.8787436133     1.6177986202     0.0325963424
Bq         0.8792300904     1.6662685361     0.0203313277
Bq         0.8797165675     1.7147384521     0.0080663130
Bq         0.8802030446     1.7632083681    -0.0041987017
Bq         0.8806895217     1.8116782840    -0.0164637164
Bq         0.8811759988     1.8601482000    -0.0287287311
Bq         0.8816624759     1.9086181160    -0.0409937458
Bq         0.8821489530     1.9570880319    -0.0532587606
Bq         0.8826354302     2.0055579479    -0.0655237753
Bq         0.8831219073     2.0540278639    -0.0777887900
Bq         0.8836083844     2.1024977798    -0.0900538047
Bq         0.8840948615     2.1509676958    -0.1023188194
Bq         0.8845813386     2.1994376118    -0.1145838341
Bq         0.8850678157     2.2479075278    -0.1268488488
Bq         0.8855542928     2.2963774437    -0.1391138635
Bq         0.8860407699     2.3448473597    -0.1513788783
Bq         0.8865272471     2.3933172757    -0.1636438930
Bq         0.8870137242     2.4417871916    -0.1759089077
Bq         0.8875002013     2.4902571076    -0.1881739224
Bq         0.8879866784     2.5387270236    -0.2004389371
Bq         0.8884731555     2.5871969395    -0.2127039518
Bq         0.8889596326     2.6356668555    -0.2249689665
Bq         0.8894461097     2.6841367715    -0.2372339813
Bq         0.8899325868     2.7326066875    -0.2494989960
Bq         0.8904190640     2.7810766034    -0.2617640107
Bq         0.8909055411     2.8295465194    -0.2740290254
Bq         0.8913920182     2.8780164354    -0.2862940401
Bq         0.8918784953     2.9264863513    -0.2985590548
Bq         0.8923649724     2.9749562673    -0.3108240695
Bq         0.8928514495     3.0234261833    -0.3230890843
Bq         0.8933379266     3.0718960992    -0.3353540990
Bq         0.8938244037     3.1203660152    -0.3476191137
Bq         0.8943108809     3.1688359312    -0.3598841284
Bq         0.8947973580     3.2173058471    -0.3721491431
Bq         0.8952838351     3.2657757631    -0.3844141578
Bq         0.8957703122     3.3142456791    -0.3966791725
Bq         0.8962567893     3.3627155951    -0.4089441872
Bq         0.8967432664     3.4111855110    -0.4212092020
Bq         0.8972297435     3.4596554270    -0.4334742167
Bq         0.8977162206     3.5081253430    -0.4457392314
Bq         0.8982026978     3.5565952589    -0.4580042461
Bq         0.8986891749     3.6050651749    -0.4702692608
Bq         0.8991756520     3.6535350909    -0.4825342755
Bq         0.8996621291     3.7020050068    -0.4947992902
Bq         0.9001486062     3.7504749228    -0.5070643050
Bq         0.9006350833     3.7989448388    -0.5193293197
Bq         0.9011215604     3.8474147548    -0.5315943344
Bq         0.9016080375     3.8958846707    -0.5438593491
Bq         0.9020945146     3.9443545867    -0.5561243638
Bq         0.9025809918     3.9928245027    -0.5683893785
Bq         0.9030674689     4.0412944186    -0.5806543932
Bq         0.9035539460     4.0897643346    -0.5929194080
Bq         0.9040404231     4.1382342506    -0.6051844227
Bq         0.9045269002     4.1867041665    -0.6174494374
Bq         0.9050133773     4.2351740825    -0.6297144521
Bq         0.9054998544     4.2836439985    -0.6419794668
Bq         0.9068128591    -0.5633475985     0.5865036365
Bq         0.9072993362    -0.5148776825     0.5742386218

1
2
3
4
5
6
7
8
9
10
11
12
13
14
15
16
17
18
19
20
21
22
23
24
25
26
27
28
29
30
31
32
33
34
35
36
37
38
39
40
41
42
43
44
45
46
47
48
49
50
51
52
53
54
55
56
57
58
59
60
61
62
63
64
65
66
67
68
69
70
71
72
73
74
75
76
77
78
79
80
81
82
83
84
85
86
87
88
89
90
91
92
93
94
95
96
97
98
99
100
101
102
103
104
105
106
107
108
109
110
111
112
113
114
115
116
117
118
119
120
121
122
123
124
125
126
127
128
129
130
131
132
133
134
135
136
137
138
139
140
141
142
143
144
145
146
147
148
149
150
151
152
153
154
155
156
157
158
159
160
161
162
163
164
165
166
167
168
169
170
171
172
173
174
175
176
177
178
179
180
181
182
183
184
185
186
187
188
189
190
191
192
193
194
195
196
197
198
199
200
201
202
203
204
205
206
207
208
209
210
211
212
213
214
215
216
217
218
219
220
221
222
223
224
225
226
227
228
229
230
231
232
233
234
235
236

