%nproc=8
%mem=1000MB
# rb3lyp/6-311+g** NMR geom=connectivity

Title

0 1
C    -4.0500558   -0.5771862    0.8136712
H    -5.0263804   -1.0082727    1.0024760
C    -3.9381552    0.6617804    0.2400876
H    -4.8252424    1.2338890   -0.0111295
C    -2.6768410    1.2433246    0.0057578
C    -1.4974121    0.5051527    0.2848253
C    -1.6508332   -0.7338728    0.9404026
H    -0.7713646   -1.2730967    1.2633753
C    -2.8898548   -1.2624035    1.1994307
H    -2.9683706   -2.2124563    1.7152676
C    -2.5773185    2.5963696   -0.4192930
H    -3.4870728    3.1412239   -0.6474055
C    -1.3741895    3.2147896   -0.4364030
H    -1.2997315    4.2742019   -0.6578144
C    -0.1719488    2.4994090   -0.1734588
C    -0.2043917    1.1018437    0.0192689
C     1.0513491    3.2042560   -0.0676222
H     1.0427344    4.2819499   -0.1896997
C     2.1942091    2.5487446    0.2579577
H     3.1168527    3.0912848    0.4334727
C     2.2216473    1.1336562    0.2934990
C     1.0486931    0.3945528    0.0302412
C     3.4483363    0.4614633    0.5573939
H     4.3095794    1.0606054    0.8334846
C     3.5427346   -0.8855926    0.4749463
H     4.4731467   -1.3939704    0.7038822
C     2.4490052   -1.6474447   -0.0196319
C     1.2150704   -1.0057258   -0.3013573
C     0.2531113   -1.7434440   -1.0216591
H    -0.6541356   -1.2535051   -1.3462847
C     0.4494193   -3.0628597   -1.3413779
H    -0.3083162   -3.5944309   -1.9054060
C     1.6251726   -3.7207967   -0.9552541
H     1.7670048   -4.7687404   -1.1927019
C     2.6109872   -3.0144177   -0.3183050
H     3.5525612   -3.4902813   -0.0646367
Bq        -0.2795959179     0.6968702167     0.2200540876
Bq        -0.2791094408     0.7453401327     0.2077890728
Bq        -0.2786229637     0.7938100487     0.1955240581
Bq        -0.2781364866     0.8422799646     0.1832590434
Bq        -0.2776500095     0.8907498806     0.1709940287
Bq        -0.2771635324     0.9392197966     0.1587290140
Bq        -0.2766770553     0.9876897125     0.1464639993
Bq        -0.2761905782     1.0361596285     0.1341989846
Bq        -0.2757041011     1.0846295445     0.1219339699
Bq        -0.2752176239     1.1330994605     0.1096689551
Bq        -0.2747311468     1.1815693764     0.0974039404
Bq        -0.2742446697     1.2300392924     0.0851389257
Bq        -0.2737581926     1.2785092084     0.0728739110
Bq        -0.2732717155     1.3269791243     0.0606088963
Bq        -0.2727852384     1.3754490403     0.0483438816
Bq        -0.2722987613     1.4239189563     0.0360788669
Bq        -0.2718122842     1.4723888722     0.0238138521
Bq        -0.2713258070     1.5208587882     0.0115488374
Bq        -0.2708393299     1.5693287042    -0.0007161773
Bq        -0.2703528528     1.6177986202    -0.0129811920
Bq        -0.2698663757     1.6662685361    -0.0252462067
Bq        -0.2693798986     1.7147384521    -0.0375112214
Bq        -0.2688934215     1.7632083681    -0.0497762361
Bq        -0.2684069444     1.8116782840    -0.0620412508
Bq        -0.2679204673     1.8601482000    -0.0743062656
Bq        -0.2674339901     1.9086181160    -0.0865712803
Bq        -0.2669475130     1.9570880319    -0.0988362950
Bq        -0.2664610359     2.0055579479    -0.1111013097
Bq        -0.2659745588     2.0540278639    -0.1233663244
Bq        -0.2654880817     2.1024977798    -0.1356313391
Bq        -0.2650016046     2.1509676958    -0.1478963538
Bq        -0.2645151275     2.1994376118    -0.1601613686
Bq        -0.2640286504     2.2479075278    -0.1724263833
Bq        -0.2635421732     2.2963774437    -0.1846913980
Bq        -0.2630556961     2.3448473597    -0.1969564127
Bq        -0.2625692190     2.3933172757    -0.2092214274
Bq        -0.2620827419     2.4417871916    -0.2214864421
Bq        -0.2615962648     2.4902571076    -0.2337514568
Bq        -0.2611097877     2.5387270236    -0.2460164716
Bq        -0.2606233106     2.5871969395    -0.2582814863
Bq        -0.2601368335     2.6356668555    -0.2705465010
Bq        -0.2596503563     2.6841367715    -0.2828115157
Bq        -0.2591638792     2.7326066875    -0.2950765304
Bq        -0.2586774021     2.7810766034    -0.3073415451
Bq        -0.2581909250     2.8295465194    -0.3196065598
Bq        -0.2577044479     2.8780164354    -0.3318715745
Bq        -0.2572179708     2.9264863513    -0.3441365893
Bq        -0.2567314937     2.9749562673    -0.3564016040
Bq        -0.2562450166     3.0234261833    -0.3686666187
Bq        -0.2557585394     3.0718960992    -0.3809316334
Bq        -0.2552720623     3.1203660152    -0.3931966481
Bq        -0.2547855852     3.1688359312    -0.4054616628
Bq        -0.2542991081     3.2173058471    -0.4177266775
Bq        -0.2538126310     3.2657757631    -0.4299916923
Bq        -0.2533261539     3.3142456791    -0.4422567070
Bq        -0.2528396768     3.3627155951    -0.4545217217
Bq        -0.2523531997     3.4111855110    -0.4667867364
Bq        -0.2518667226     3.4596554270    -0.4790517511
Bq        -0.2513802454     3.5081253430    -0.4913167658
Bq        -0.2508937683     3.5565952589    -0.5035817805
Bq        -0.2504072912     3.6050651749    -0.5158467953
Bq        -0.2499208141     3.6535350909    -0.5281118100
Bq        -0.2494343370     3.7020050068    -0.5403768247
Bq        -0.2489478599     3.7504749228    -0.5526418394
Bq        -0.2484613828     3.7989448388    -0.5649068541
Bq        -0.2479749057     3.8474147548    -0.5771718688
Bq        -0.2474884285     3.8958846707    -0.5894368835
Bq        -0.2470019514     3.9443545867    -0.6017018982
Bq        -0.2465154743     3.9928245027    -0.6139669130
Bq        -0.2460289972     4.0412944186    -0.6262319277
Bq        -0.2455425201     4.0897643346    -0.6384969424
Bq        -0.2450560430     4.1382342506    -0.6507619571
Bq        -0.2445695659     4.1867041665    -0.6630269718
Bq        -0.2440830888     4.2351740825    -0.6752919865
Bq        -0.2435966116     4.2836439985    -0.6875570012
Bq        -0.2422836069    -0.5633475985     0.5409261020
Bq        -0.2417971298    -0.5148776825     0.5286610873
Bq        -0.2413106527    -0.4664077665     0.5163960726
Bq        -0.2408241756    -0.4179378506     0.5041310579
Bq        -0.2403376985    -0.3694679346     0.4918660432
Bq        -0.2398512214    -0.3209980186     0.4796010285
Bq        -0.2393647443    -0.2725281027     0.4673360138
Bq        -0.2388782672    -0.2240581867     0.4550709991
Bq        -0.2383917901    -0.1755882707     0.4428059843
Bq        -0.2379053129    -0.1271183548     0.4305409696
Bq        -0.2374188358    -0.0786484388     0.4182759549
Bq        -0.2369323587    -0.0301785228     0.4060109402
Bq        -0.2364458816     0.0182913932     0.3937459255
Bq        -0.2359594045     0.0667613091     0.3814809108
Bq        -0.2354729274     0.1152312251     0.3692158961
Bq        -0.2349864503     0.1637011411     0.3569508813
Bq        -0.2344999732     0.2121710570     0.3446858666
Bq        -0.2340134960     0.2606409730     0.3324208519
Bq        -0.2335270189     0.3091108890     0.3201558372
Bq        -0.2330405418     0.3575808049     0.3078908225
Bq        -0.2325540647     0.4060507209     0.2956258078
Bq        -0.2320675876     0.4545206369     0.2833607931
Bq        -0.2315811105     0.5029905529     0.2710957783
Bq        -0.2310946334     0.5514604688     0.2588307636
Bq        -0.2306081563     0.5999303848     0.2465657489
Bq        -0.2301216791     0.6484003008     0.2343007342
Bq        -0.2296352020     0.6968702167     0.2220357195
Bq        -0.2291487249     0.7453401327     0.2097707048
Bq        -0.2286622478     0.7938100487     0.1975056901
Bq        -0.2281757707     0.8422799646     0.1852406754
Bq        -0.2276892936     0.8907498806     0.1729756606
Bq        -0.2272028165     0.9392197966     0.1607106459
Bq        -0.2267163394     0.9876897125     0.1484456312
Bq        -0.2262298622     1.0361596285     0.1361806165
Bq        -0.2257433851     1.0846295445     0.1239156018
Bq        -0.2252569080     1.1330994605     0.1116505871
Bq        -0.2247704309     1.1815693764     0.0993855724
Bq        -0.2242839538     1.2300392924     0.0871205576
Bq        -0.2237974767     1.2785092084     0.0748555429
Bq        -0.2233109996     1.3269791243     0.0625905282
Bq        -0.2228245225     1.3754490403     0.0503255135
Bq        -0.2223380453     1.4239189563     0.0380604988
Bq        -0.2218515682     1.4723888722     0.0257954841
Bq        -0.2213650911     1.5208587882     0.0135304694
Bq        -0.2208786140     1.5693287042     0.0012654547
Bq        -0.2203921369     1.6177986202    -0.0109995601
Bq        -0.2199056598     1.6662685361    -0.0232645748
Bq        -0.2194191827     1.7147384521    -0.0355295895
Bq        -0.2189327056     1.7632083681    -0.0477946042
Bq        -0.2184462285     1.8116782840    -0.0600596189
Bq        -0.2179597513     1.8601482000    -0.0723246336
Bq        -0.2174732742     1.9086181160    -0.0845896483
Bq        -0.2169867971     1.9570880319    -0.0968546631
Bq        -0.2165003200     2.0055579479    -0.1091196778
Bq        -0.2160138429     2.0540278639    -0.1213846925
Bq        -0.2155273658     2.1024977798    -0.1336497072
Bq        -0.2150408887     2.1509676958    -0.1459147219
Bq        -0.2145544116     2.1994376118    -0.1581797366
Bq        -0.2140679344     2.2479075278    -0.1704447513
Bq        -0.2135814573     2.2963774437    -0.1827097661
Bq        -0.2130949802     2.3448473597    -0.1949747808
Bq        -0.2126085031     2.3933172757    -0.2072397955
Bq        -0.2121220260     2.4417871916    -0.2195048102
Bq        -0.2116355489     2.4902571076    -0.2317698249
Bq        -0.2111490718     2.5387270236    -0.2440348396
Bq        -0.2106625947     2.5871969395    -0.2562998543
Bq        -0.2101761175     2.6356668555    -0.2685648690
Bq        -0.2096896404     2.6841367715    -0.2808298838
Bq        -0.2092031633     2.7326066875    -0.2930948985
Bq        -0.2087166862     2.7810766034    -0.3053599132
Bq        -0.2082302091     2.8295465194    -0.3176249279
Bq        -0.2077437320     2.8780164354    -0.3298899426
Bq        -0.2072572549     2.9264863513    -0.3421549573
Bq        -0.2067707778     2.9749562673    -0.3544199720
Bq        -0.2062843006     3.0234261833    -0.3666849868
Bq        -0.2057978235     3.0718960992    -0.3789500015
Bq        -0.2053113464     3.1203660152    -0.3912150162
Bq        -0.2048248693     3.1688359312    -0.4034800309
Bq        -0.2043383922     3.2173058471    -0.4157450456
Bq        -0.2038519151     3.2657757631    -0.4280100603
Bq        -0.2033654380     3.3142456791    -0.4402750750
Bq        -0.2028789609     3.3627155951    -0.4525400898
Bq        -0.2023924837     3.4111855110    -0.4648051045
Bq        -0.2019060066     3.4596554270    -0.4770701192
Bq        -0.2014195295     3.5081253430    -0.4893351339
Bq        -0.2009330524     3.5565952589    -0.5016001486
Bq        -0.2004465753     3.6050651749    -0.5138651633
Bq        -0.1999600982     3.6535350909    -0.5261301780
Bq        -0.1994736211     3.7020050068    -0.5383951927
Bq        -0.1989871440     3.7504749228    -0.5506602075
Bq        -0.1985006668     3.7989448388    -0.5629252222
Bq        -0.1980141897     3.8474147548    -0.5751902369
Bq        -0.1975277126     3.8958846707    -0.5874552516
Bq        -0.1970412355     3.9443545867    -0.5997202663
Bq        -0.1965547584     3.9928245027    -0.6119852810
Bq        -0.1960682813     4.0412944186    -0.6242502957
Bq        -0.1955818042     4.0897643346    -0.6365153105
Bq        -0.1950953271     4.1382342506    -0.6487803252
Bq        -0.1946088500     4.1867041665    -0.6610453399
Bq        -0.1941223728     4.2351740825    -0.6733103546
Bq        -0.1936358957     4.2836439985    -0.6855753693
Bq        -0.1923228910    -0.5633475985     0.5429077340
Bq        -0.1918364139    -0.5148776825     0.5306427193
Bq        -0.1913499368    -0.4664077665     0.5183777046
Bq        -0.1908634597    -0.4179378506     0.5061126898
Bq        -0.1903769826    -0.3694679346     0.4938476751
Bq        -0.1898905055    -0.3209980186     0.4815826604
Bq        -0.1894040284    -0.2725281027     0.4693176457
Bq        -0.1889175512    -0.2240581867     0.4570526310
Bq        -0.1884310741    -0.1755882707     0.4447876163
Bq        -0.1879445970    -0.1271183548     0.4325226016
Bq        -0.1874581199    -0.0786484388     0.4202575868
Bq        -0.1869716428    -0.0301785228     0.4079925721
Bq        -0.1864851657     0.0182913932     0.3957275574
Bq        -0.1859986886     0.0667613091     0.3834625427
Bq        -0.1855122115     0.1152312251     0.3711975280
Bq        -0.1850257343     0.1637011411     0.3589325133
Bq        -0.1845392572     0.2121710570     0.3466674986
Bq        -0.1840527801     0.2606409730     0.3344024838
Bq        -0.1835663030     0.3091108890     0.3221374691
Bq        -0.1830798259     0.3575808049     0.3098724544
Bq        -0.1825933488     0.4060507209     0.2976074397
Bq        -0.1821068717     0.4545206369     0.2853424250
Bq        -0.1816203946     0.5029905529     0.2730774103
Bq        -0.1811339175     0.5514604688     0.2608123956

1
2
3
4
5
6
7
8
9
10
11
12
13
14
15
16
17
18
19
20
21
22
23
24
25
26
27
28
29
30
31
32
33
34
35
36
37
38
39
40
41
42
43
44
45
46
47
48
49
50
51
52
53
54
55
56
57
58
59
60
61
62
63
64
65
66
67
68
69
70
71
72
73
74
75
76
77
78
79
80
81
82
83
84
85
86
87
88
89
90
91
92
93
94
95
96
97
98
99
100
101
102
103
104
105
106
107
108
109
110
111
112
113
114
115
116
117
118
119
120
121
122
123
124
125
126
127
128
129
130
131
132
133
134
135
136
137
138
139
140
141
142
143
144
145
146
147
148
149
150
151
152
153
154
155
156
157
158
159
160
161
162
163
164
165
166
167
168
169
170
171
172
173
174
175
176
177
178
179
180
181
182
183
184
185
186
187
188
189
190
191
192
193
194
195
196
197
198
199
200
201
202
203
204
205
206
207
208
209
210
211
212
213
214
215
216
217
218
219
220
221
222
223
224
225
226
227
228
229
230
231
232
233
234
235
236

