%nproc=8
%mem=1000MB
# rb3lyp/6-311+g** NMR geom=connectivity

Title

0 1
C    -4.0500558   -0.5771862    0.8136712
H    -5.0263804   -1.0082727    1.0024760
C    -3.9381552    0.6617804    0.2400876
H    -4.8252424    1.2338890   -0.0111295
C    -2.6768410    1.2433246    0.0057578
C    -1.4974121    0.5051527    0.2848253
C    -1.6508332   -0.7338728    0.9404026
H    -0.7713646   -1.2730967    1.2633753
C    -2.8898548   -1.2624035    1.1994307
H    -2.9683706   -2.2124563    1.7152676
C    -2.5773185    2.5963696   -0.4192930
H    -3.4870728    3.1412239   -0.6474055
C    -1.3741895    3.2147896   -0.4364030
H    -1.2997315    4.2742019   -0.6578144
C    -0.1719488    2.4994090   -0.1734588
C    -0.2043917    1.1018437    0.0192689
C     1.0513491    3.2042560   -0.0676222
H     1.0427344    4.2819499   -0.1896997
C     2.1942091    2.5487446    0.2579577
H     3.1168527    3.0912848    0.4334727
C     2.2216473    1.1336562    0.2934990
C     1.0486931    0.3945528    0.0302412
C     3.4483363    0.4614633    0.5573939
H     4.3095794    1.0606054    0.8334846
C     3.5427346   -0.8855926    0.4749463
H     4.4731467   -1.3939704    0.7038822
C     2.4490052   -1.6474447   -0.0196319
C     1.2150704   -1.0057258   -0.3013573
C     0.2531113   -1.7434440   -1.0216591
H    -0.6541356   -1.2535051   -1.3462847
C     0.4494193   -3.0628597   -1.3413779
H    -0.3083162   -3.5944309   -1.9054060
C     1.6251726   -3.7207967   -0.9552541
H     1.7670048   -4.7687404   -1.1927019
C     2.6109872   -3.0144177   -0.3183050
H     3.5525612   -3.4902813   -0.0646367
Bq         1.2862145500    -2.2693884506    -0.6973943810
Bq         1.2807113133    -2.2211919593    -0.6852777558
Bq         1.2752080766    -2.1729954679    -0.6731611305
Bq         1.2697048399    -2.1247989766    -0.6610445053
Bq         1.2642016032    -2.0766024852    -0.6489278801
Bq         1.2586983666    -2.0284059938    -0.6368112548
Bq         1.2531951299    -1.9802095025    -0.6246946296
Bq         1.2476918932    -1.9320130111    -0.6125780044
Bq         1.2421886565    -1.8838165198    -0.6004613792
Bq         1.2366854198    -1.8356200284    -0.5883447539
Bq         1.2311821831    -1.7874235371    -0.5762281287
Bq         1.2256789464    -1.7392270457    -0.5641115035
Bq         1.2201757098    -1.6910305543    -0.5519948782
Bq         1.2146724731    -1.6428340630    -0.5398782530
Bq         1.2091692364    -1.5946375716    -0.5277616278
Bq         1.2036659997    -1.5464410803    -0.5156450025
Bq         1.1981627630    -1.4982445889    -0.5035283773
Bq         1.1926595263    -1.4500480976    -0.4914117521
Bq         1.1871562896    -1.4018516062    -0.4792951269
Bq         1.1816530530    -1.3536551149    -0.4671785016
Bq         1.1761498163    -1.3054586235    -0.4550618764
Bq         1.1706465796    -1.2572621321    -0.4429452512
Bq         1.1651433429    -1.2090656408    -0.4308286259
Bq         1.1596401062    -1.1608691494    -0.4187120007
Bq         1.1541368695    -1.1126726581    -0.4065953755
Bq         1.1486336328    -1.0644761667    -0.3944787503
Bq         1.1431303962    -1.0162796754    -0.3823621250
Bq         1.1376271595    -0.9680831840    -0.3702454998
Bq         1.1321239228    -0.9198866927    -0.3581288746
Bq         1.1266206861    -0.8716902013    -0.3460122493
Bq         1.1211174494    -0.8234937099    -0.3338956241
Bq         1.1156142127    -0.7752972186    -0.3217789989
Bq         1.1101109760    -0.7271007272    -0.3096623737
Bq         1.1046077394    -0.6789042359    -0.2975457484
Bq         1.0991045027    -0.6307077445    -0.2854291232
Bq         1.0936012660    -0.5825112532    -0.2733124980
Bq         1.0880980293    -0.5343147618    -0.2611958727
Bq         1.0825947926    -0.4861182704    -0.2490792475
Bq         1.0770915559    -0.4379217791    -0.2369626223
Bq         1.0715883192    -0.3897252877    -0.2248459971
Bq         1.0660850825    -0.3415287964    -0.2127293718
Bq         1.0605818459    -0.2933323050    -0.2006127466
Bq         1.0550786092    -0.2451358137    -0.1884961214
Bq         1.0495753725    -0.1969393223    -0.1763794961
Bq         1.0440721358    -0.1487428310    -0.1642628709
Bq         1.0385688991    -0.1005463396    -0.1521462457
Bq         1.0330656624    -0.0523498482    -0.1400296205
Bq         1.0275624257    -0.0041533569    -0.1279129952
Bq         1.0220591891     0.0440431345    -0.1157963700
Bq         1.6179072943    -4.7756060011    -1.3067821991
Bq         1.6124040576    -4.7274095098    -1.2946655738
Bq         1.6069008210    -4.6792130184    -1.2825489486
Bq         1.6013975843    -4.6310165271    -1.2704323234
Bq         1.5958943476    -4.5828200357    -1.2583156982
Bq         1.5903911109    -4.5346235444    -1.2461990729
Bq         1.5848878742    -4.4864270530    -1.2340824477
Bq         1.5793846375    -4.4382305616    -1.2219658225
Bq         1.5738814008    -4.3900340703    -1.2098491972
Bq         1.5683781641    -4.3418375789    -1.1977325720
Bq         1.5628749275    -4.2936410876    -1.1856159468
Bq         1.5573716908    -4.2454445962    -1.1734993216
Bq         1.5518684541    -4.1972481049    -1.1613826963
Bq         1.5463652174    -4.1490516135    -1.1492660711
Bq         1.5408619807    -4.1008551222    -1.1371494459
Bq         1.5353587440    -4.0526586308    -1.1250328206
Bq         1.5298555073    -4.0044621394    -1.1129161954
Bq         1.5243522707    -3.9562656481    -1.1007995702
Bq         1.5188490340    -3.9080691567    -1.0886829450
Bq         1.5133457973    -3.8598726654    -1.0765663197
Bq         1.5078425606    -3.8116761740    -1.0644496945
Bq         1.5023393239    -3.7634796827    -1.0523330693
Bq         1.4968360872    -3.7152831913    -1.0402164440
Bq         1.4913328505    -3.6670866999    -1.0280998188
Bq         1.4858296139    -3.6188902086    -1.0159831936
Bq         1.4803263772    -3.5706937172    -1.0038665684
Bq         1.4748231405    -3.5224972259    -0.9917499431
Bq         1.4693199038    -3.4743007345    -0.9796333179
Bq         1.4638166671    -3.4261042432    -0.9675166927
Bq         1.4583134304    -3.3779077518    -0.9554000674
Bq         1.4528101937    -3.3297112605    -0.9432834422
Bq         1.4473069571    -3.2815147691    -0.9311668170
Bq         1.4418037204    -3.2333182777    -0.9190501918
Bq         1.4363004837    -3.1851217864    -0.9069335665
Bq         1.4307972470    -3.1369252950    -0.8948169413
Bq         1.4252940103    -3.0887288037    -0.8827003161
Bq         1.4197907736    -3.0405323123    -0.8705836908
Bq         1.4142875369    -2.9923358210    -0.8584670656
Bq         1.4087843003    -2.9441393296    -0.8463504404
Bq         1.4032810636    -2.8959428383    -0.8342338151
Bq         1.3977778269    -2.8477463469    -0.8221171899
Bq         1.3922745902    -2.7995498555    -0.8100005647
Bq         1.3867713535    -2.7513533642    -0.7978839395
Bq         1.3812681168    -2.7031568728    -0.7857673142
Bq         1.3757648801    -2.6549603815    -0.7736506890
Bq         1.3702616435    -2.6067638901    -0.7615340638
Bq         1.3647584068    -2.5585673988    -0.7494174385
Bq         1.3592551701    -2.5103709074    -0.7373008133
Bq         1.3537519334    -2.4621744160    -0.7251841881
Bq         1.3482486967    -2.4139779247    -0.7130675629
Bq         1.3427454600    -2.3657814333    -0.7009509376
Bq         1.3372422233    -2.3175849420    -0.6888343124
Bq         1.3317389866    -2.2693884506    -0.6767176872
Bq         1.3262357500    -2.2211919593    -0.6646010619
Bq         1.3207325133    -2.1729954679    -0.6524844367
Bq         1.3152292766    -2.1247989766    -0.6403678115
Bq         1.3097260399    -2.0766024852    -0.6282511863
Bq         1.3042228032    -2.0284059938    -0.6161345610
Bq         1.2987195665    -1.9802095025    -0.6040179358
Bq         1.2932163298    -1.9320130111    -0.5919013106
Bq         1.2877130932    -1.8838165198    -0.5797846853
Bq         1.2822098565    -1.8356200284    -0.5676680601
Bq         1.2767066198    -1.7874235371    -0.5555514349
Bq         1.2712033831    -1.7392270457    -0.5434348097
Bq         1.2657001464    -1.6910305543    -0.5313181844
Bq         1.2601969097    -1.6428340630    -0.5192015592
Bq         1.2546936730    -1.5946375716    -0.5070849340
Bq         1.2491904364    -1.5464410803    -0.4949683087
Bq         1.2436871997    -1.4982445889    -0.4828516835
Bq         1.2381839630    -1.4500480976    -0.4707350583
Bq         1.2326807263    -1.4018516062    -0.4586184330
Bq         1.2271774896    -1.3536551149    -0.4465018078
Bq         1.2216742529    -1.3054586235    -0.4343851826
Bq         1.2161710162    -1.2572621321    -0.4222685574
Bq         1.2106677796    -1.2090656408    -0.4101519321
Bq         1.2051645429    -1.1608691494    -0.3980353069
Bq         1.1996613062    -1.1126726581    -0.3859186817
Bq         1.1941580695    -1.0644761667    -0.3738020564
Bq         1.1886548328    -1.0162796754    -0.3616854312
Bq         1.1831515961    -0.9680831840    -0.3495688060
Bq         1.1776483594    -0.9198866927    -0.3374521808
Bq         1.1721451228    -0.8716902013    -0.3253355555
Bq         1.1666418861    -0.8234937099    -0.3132189303
Bq         1.1611386494    -0.7752972186    -0.3011023051
Bq         1.1556354127    -0.7271007272    -0.2889856798
Bq         1.1501321760    -0.6789042359    -0.2768690546
Bq         1.1446289393    -0.6307077445    -0.2647524294
Bq         1.1391257026    -0.5825112532    -0.2526358042
Bq         1.1336224659    -0.5343147618    -0.2405191789
Bq         1.1281192293    -0.4861182704    -0.2284025537
Bq         1.1226159926    -0.4379217791    -0.2162859285
Bq         1.1171127559    -0.3897252877    -0.2041693032
Bq         1.1116095192    -0.3415287964    -0.1920526780
Bq         1.1061062825    -0.2933323050    -0.1799360528
Bq         1.1006030458    -0.2451358137    -0.1678194276
Bq         1.0950998091    -0.1969393223    -0.1557028023
Bq         1.0895965725    -0.1487428310    -0.1435861771
Bq         1.0840933358    -0.1005463396    -0.1314695519
Bq         1.0785900991    -0.0523498482    -0.1193529266
Bq         1.0730868624    -0.0041533569    -0.1072363014
Bq         1.0675836257     0.0440431345    -0.0951196762
Bq         1.6634317310    -4.7756060011    -1.2861055053
Bq         1.6579284943    -4.7274095098    -1.2739888800
Bq         1.6524252576    -4.6792130184    -1.2618722548
Bq         1.6469220209    -4.6310165271    -1.2497556296
Bq         1.6414187842    -4.5828200357    -1.2376390043
Bq         1.6359155475    -4.5346235444    -1.2255223791
Bq         1.6304123109    -4.4864270530    -1.2134057539
Bq         1.6249090742    -4.4382305616    -1.2012891287
Bq         1.6194058375    -4.3900340703    -1.1891725034
Bq         1.6139026008    -4.3418375789    -1.1770558782
Bq         1.6083993641    -4.2936410876    -1.1649392530
Bq         1.6028961274    -4.2454445962    -1.1528226277
Bq         1.5973928907    -4.1972481049    -1.1407060025
Bq         1.5918896541    -4.1490516135    -1.1285893773
Bq         1.5863864174    -4.1008551222    -1.1164727521
Bq         1.5808831807    -4.0526586308    -1.1043561268
Bq         1.5753799440    -4.0044621394    -1.0922395016
Bq         1.5698767073    -3.9562656481    -1.0801228764
Bq         1.5643734706    -3.9080691567    -1.0680062511
Bq         1.5588702339    -3.8598726654    -1.0558896259
Bq         1.5533669973    -3.8116761740    -1.0437730007
Bq         1.5478637606    -3.7634796827    -1.0316563755
Bq         1.5423605239    -3.7152831913    -1.0195397502
Bq         1.5368572872    -3.6670866999    -1.0074231250
Bq         1.5313540505    -3.6188902086    -0.9953064998
Bq         1.5258508138    -3.5706937172    -0.9831898745
Bq         1.5203475771    -3.5224972259    -0.9710732493
Bq         1.5148443405    -3.4743007345    -0.9589566241
Bq         1.5093411038    -3.4261042432    -0.9468399989
Bq         1.5038378671    -3.3779077518    -0.9347233736
Bq         1.4983346304    -3.3297112605    -0.9226067484
Bq         1.4928313937    -3.2815147691    -0.9104901232
Bq         1.4873281570    -3.2333182777    -0.8983734979
Bq         1.4818249203    -3.1851217864    -0.8862568727
Bq         1.4763216837    -3.1369252950    -0.8741402475
Bq         1.4708184470    -3.0887288037    -0.8620236222
Bq         1.4653152103    -3.0405323123    -0.8499069970
Bq         1.4598119736    -2.9923358210    -0.8377903718
Bq         1.4543087369    -2.9441393296    -0.8256737466
Bq         1.4488055002    -2.8959428383    -0.8135571213
Bq         1.4433022635    -2.8477463469    -0.8014404961
Bq         1.4377990269    -2.7995498555    -0.7893238709
Bq         1.4322957902    -2.7513533642    -0.7772072456
Bq         1.4267925535    -2.7031568728    -0.7650906204
Bq         1.4212893168    -2.6549603815    -0.7529739952
Bq         1.4157860801    -2.6067638901    -0.7408573700
Bq         1.4102828434    -2.5585673988    -0.7287407447
Bq         1.4047796067    -2.5103709074    -0.7166241195
Bq         1.3992763700    -2.4621744160    -0.7045074943
Bq         1.3937731334    -2.4139779247    -0.6923908690

1
2
3
4
5
6
7
8
9
10
11
12
13
14
15
16
17
18
19
20
21
22
23
24
25
26
27
28
29
30
31
32
33
34
35
36
37
38
39
40
41
42
43
44
45
46
47
48
49
50
51
52
53
54
55
56
57
58
59
60
61
62
63
64
65
66
67
68
69
70
71
72
73
74
75
76
77
78
79
80
81
82
83
84
85
86
87
88
89
90
91
92
93
94
95
96
97
98
99
100
101
102
103
104
105
106
107
108
109
110
111
112
113
114
115
116
117
118
119
120
121
122
123
124
125
126
127
128
129
130
131
132
133
134
135
136
137
138
139
140
141
142
143
144
145
146
147
148
149
150
151
152
153
154
155
156
157
158
159
160
161
162
163
164
165
166
167
168
169
170
171
172
173
174
175
176
177
178
179
180
181
182
183
184
185
186
187
188
189
190
191
192
193
194
195
196
197
198
199
200
201
202
203
204
205
206
207
208
209
210
211
212
213
214
215
216
217
218
219
220
221
222
223
224
225
226
227
228
229
230
231
232
233
234
235
236

