%nproc=8
%mem=1000MB
# rb3lyp/6-311+g** NMR geom=connectivity

Title

0 1
C    -4.0500558   -0.5771862    0.8136712
H    -5.0263804   -1.0082727    1.0024760
C    -3.9381552    0.6617804    0.2400876
H    -4.8252424    1.2338890   -0.0111295
C    -2.6768410    1.2433246    0.0057578
C    -1.4974121    0.5051527    0.2848253
C    -1.6508332   -0.7338728    0.9404026
H    -0.7713646   -1.2730967    1.2633753
C    -2.8898548   -1.2624035    1.1994307
H    -2.9683706   -2.2124563    1.7152676
C    -2.5773185    2.5963696   -0.4192930
H    -3.4870728    3.1412239   -0.6474055
C    -1.3741895    3.2147896   -0.4364030
H    -1.2997315    4.2742019   -0.6578144
C    -0.1719488    2.4994090   -0.1734588
C    -0.2043917    1.1018437    0.0192689
C     1.0513491    3.2042560   -0.0676222
H     1.0427344    4.2819499   -0.1896997
C     2.1942091    2.5487446    0.2579577
H     3.1168527    3.0912848    0.4334727
C     2.2216473    1.1336562    0.2934990
C     1.0486931    0.3945528    0.0302412
C     3.4483363    0.4614633    0.5573939
H     4.3095794    1.0606054    0.8334846
C     3.5427346   -0.8855926    0.4749463
H     4.4731467   -1.3939704    0.7038822
C     2.4490052   -1.6474447   -0.0196319
C     1.2150704   -1.0057258   -0.3013573
C     0.2531113   -1.7434440   -1.0216591
H    -0.6541356   -1.2535051   -1.3462847
C     0.4494193   -3.0628597   -1.3413779
H    -0.3083162   -3.5944309   -1.9054060
C     1.6251726   -3.7207967   -0.9552541
H     1.7670048   -4.7687404   -1.1927019
C     2.6109872   -3.0144177   -0.3183050
H     3.5525612   -3.4902813   -0.0646367
Bq        -3.7323129526     0.7832617340     0.1856199499
Bq        -3.7322274865     0.8282874304     0.1638787594
Bq        -3.7321420203     0.8733131267     0.1421375689
Bq        -3.7320565542     0.9183388230     0.1203963784
Bq        -3.7319710881     0.9633645194     0.0986551879
Bq        -3.7318856219     1.0083902157     0.0769139973
Bq        -3.7318001558     1.0534159120     0.0551728068
Bq        -3.7317146897     1.0984416084     0.0334316163
Bq        -3.7316292235     1.1434673047     0.0116904258
Bq        -3.7315437574     1.1884930011    -0.0100507647
Bq        -3.7314582913     1.2335186974    -0.0317919552
Bq        -3.7313728251     1.2785443937    -0.0535331458
Bq        -3.7312873590     1.3235700901    -0.0752743363
Bq        -3.7312018928     1.3685957864    -0.0970155268
Bq        -3.7311164267     1.4136214827    -0.1187567173
Bq        -3.7310309606     1.4586471791    -0.1404979078
Bq        -3.7309454944     1.5036728754    -0.1622390983
Bq        -3.7308600283     1.5486985717    -0.1839802889
Bq        -3.7307745622     1.5937242681    -0.2057214794
Bq        -3.7306890960     1.6387499644    -0.2274626699
Bq        -3.7306036299     1.6837756607    -0.2492038604
Bq        -3.7305181637     1.7288013571    -0.2709450509
Bq        -3.7304326976     1.7738270534    -0.2926862414
Bq        -3.7303472315     1.8188527497    -0.3144274319
Bq        -3.7302617653     1.8638784461    -0.3361686225
Bq        -3.7301762992     1.9089041424    -0.3579098130
Bq        -3.7300908331     1.9539298388    -0.3796510035
Bq        -3.7300053669     1.9989555351    -0.4013921940
Bq        -3.7299199008     2.0439812314    -0.4231333845
Bq        -3.7298344346     2.0890069278    -0.4448745750
Bq        -3.7297489685     2.1340326241    -0.4666157656
Bq        -3.7296635024     2.1790583204    -0.4883569561
Bq        -3.7295780362     2.2240840168    -0.5100981466
Bq        -3.6881250363    -2.2784856168     1.6642174570
Bq        -3.6880395702    -2.2334599204     1.6424762665
Bq        -3.6879541040    -2.1884342241     1.6207350760
Bq        -3.6878686379    -2.1434085278     1.5989938854
Bq        -3.6877831717    -2.0983828314     1.5772526949
Bq        -3.6876977056    -2.0533571351     1.5555115044
Bq        -3.6876122395    -2.0083314388     1.5337703139
Bq        -3.6875267733    -1.9633057424     1.5120291234
Bq        -3.6874413072    -1.9182800461     1.4902879329
Bq        -3.6873558411    -1.8732543497     1.4685467424
Bq        -3.6872703749    -1.8282286534     1.4468055518
Bq        -3.6871849088    -1.7832029571     1.4250643613
Bq        -3.6870994426    -1.7381772607     1.4033231708
Bq        -3.6870139765    -1.6931515644     1.3815819803
Bq        -3.6869285104    -1.6481258681     1.3598407898
Bq        -3.6868430442    -1.6031001717     1.3380995993
Bq        -3.6867575781    -1.5580744754     1.3163584087
Bq        -3.6866721120    -1.5130487791     1.2946172182
Bq        -3.6865866458    -1.4680230827     1.2728760277
Bq        -3.6865011797    -1.4229973864     1.2511348372
Bq        -3.6864157135    -1.3779716901     1.2293936467
Bq        -3.6863302474    -1.3329459937     1.2076524562
Bq        -3.6862447813    -1.2879202974     1.1859112656
Bq        -3.6861593151    -1.2428946011     1.1641700751
Bq        -3.6860738490    -1.1978689047     1.1424288846
Bq        -3.6859883829    -1.1528432084     1.1206876941
Bq        -3.6859029167    -1.1078175120     1.0989465036
Bq        -3.6858174506    -1.0627918157     1.0772053131
Bq        -3.6857319844    -1.0177661194     1.0554641225
Bq        -3.6856465183    -0.9727404230     1.0337229320
Bq        -3.6855610522    -0.9277147267     1.0119817415
Bq        -3.6854755860    -0.8826890304     0.9902405510
Bq        -3.6853901199    -0.8376633340     0.9684993605
Bq        -3.6853046538    -0.7926376377     0.9467581700
Bq        -3.6852191876    -0.7476119414     0.9250169794
Bq        -3.6851337215    -0.7025862450     0.9032757889
Bq        -3.6850482553    -0.6575605487     0.8815345984
Bq        -3.6849627892    -0.6125348524     0.8597934079
Bq        -3.6848773231    -0.5675091560     0.8380522174
Bq        -3.6847918569    -0.5224834597     0.8163110269
Bq        -3.6847063908    -0.4774577634     0.7945698363
Bq        -3.6846209247    -0.4324320670     0.7728286458
Bq        -3.6845354585    -0.3874063707     0.7510874553
Bq        -3.6844499924    -0.3423806743     0.7293462648
Bq        -3.6843645262    -0.2973549780     0.7076050743
Bq        -3.6842790601    -0.2523292817     0.6858638838
Bq        -3.6841935940    -0.2073035853     0.6641226933
Bq        -3.6841081278    -0.1622778890     0.6423815027
Bq        -3.6840226617    -0.1172521927     0.6206403122
Bq        -3.6839371956    -0.0722264963     0.5988991217
Bq        -3.6838517294    -0.0272008000     0.5771579312
Bq        -3.6837662633     0.0178248963     0.5554167407
Bq        -3.6836807971     0.0628505927     0.5336755502
Bq        -3.6835953310     0.1078762890     0.5119343596
Bq        -3.6835098649     0.1529019853     0.4901931691
Bq        -3.6834243987     0.1979276817     0.4684519786
Bq        -3.6833389326     0.2429533780     0.4467107881
Bq        -3.6832534665     0.2879790743     0.4249695976
Bq        -3.6831680003     0.3330047707     0.4032284071
Bq        -3.6830825342     0.3780304670     0.3814872165
Bq        -3.6829970681     0.4230561634     0.3597460260
Bq        -3.6829116019     0.4680818597     0.3380048355
Bq        -3.6828261358     0.5131075560     0.3162636450
Bq        -3.6827406696     0.5581332524     0.2945224545
Bq        -3.6826552035     0.6031589487     0.2727812640
Bq        -3.6825697374     0.6481846450     0.2510400734
Bq        -3.6824842712     0.6932103414     0.2292988829
Bq        -3.6823988051     0.7382360377     0.2075576924
Bq        -3.6823133390     0.7832617340     0.1858165019
Bq        -3.6822278728     0.8282874304     0.1640753114
Bq        -3.6821424067     0.8733131267     0.1423341209
Bq        -3.6820569405     0.9183388230     0.1205929303
Bq        -3.6819714744     0.9633645194     0.0988517398
Bq        -3.6818860083     1.0083902157     0.0771105493
Bq        -3.6818005421     1.0534159120     0.0553693588
Bq        -3.6817150760     1.0984416084     0.0336281683
Bq        -3.6816296099     1.1434673047     0.0118869778
Bq        -3.6815441437     1.1884930011    -0.0098542128
Bq        -3.6814586776     1.2335186974    -0.0315954033
Bq        -3.6813732114     1.2785443937    -0.0533365938
Bq        -3.6812877453     1.3235700901    -0.0750777843
Bq        -3.6812022792     1.3685957864    -0.0968189748
Bq        -3.6811168130     1.4136214827    -0.1185601653
Bq        -3.6810313469     1.4586471791    -0.1403013558
Bq        -3.6809458808     1.5036728754    -0.1620425464
Bq        -3.6808604146     1.5486985717    -0.1837837369
Bq        -3.6807749485     1.5937242681    -0.2055249274
Bq        -3.6806894823     1.6387499644    -0.2272661179
Bq        -3.6806040162     1.6837756607    -0.2490073084
Bq        -3.6805185501     1.7288013571    -0.2707484989
Bq        -3.6804330839     1.7738270534    -0.2924896895
Bq        -3.6803476178     1.8188527497    -0.3142308800
Bq        -3.6802621517     1.8638784461    -0.3359720705
Bq        -3.6801766855     1.9089041424    -0.3577132610
Bq        -3.6800912194     1.9539298388    -0.3794544515
Bq        -3.6800057532     1.9989555351    -0.4011956420
Bq        -3.6799202871     2.0439812314    -0.4229368326
Bq        -3.6798348210     2.0890069278    -0.4446780231
Bq        -3.6797493548     2.1340326241    -0.4664192136
Bq        -3.6796638887     2.1790583204    -0.4881604041
Bq        -3.6795784226     2.2240840168    -0.5099015946
Bq        -3.6381254226    -2.2784856168     1.6644140090
Bq        -3.6380399565    -2.2334599204     1.6426728185
Bq        -3.6379544903    -2.1884342241     1.6209316279
Bq        -3.6378690242    -2.1434085278     1.5991904374
Bq        -3.6377835581    -2.0983828314     1.5774492469
Bq        -3.6376980919    -2.0533571351     1.5557080564
Bq        -3.6376126258    -2.0083314388     1.5339668659
Bq        -3.6375271597    -1.9633057424     1.5122256754
Bq        -3.6374416935    -1.9182800461     1.4904844848
Bq        -3.6373562274    -1.8732543497     1.4687432943
Bq        -3.6372707612    -1.8282286534     1.4470021038
Bq        -3.6371852951    -1.7832029571     1.4252609133
Bq        -3.6370998290    -1.7381772607     1.4035197228
Bq        -3.6370143628    -1.6931515644     1.3817785323
Bq        -3.6369288967    -1.6481258681     1.3600373417
Bq        -3.6368434306    -1.6031001717     1.3382961512
Bq        -3.6367579644    -1.5580744754     1.3165549607
Bq        -3.6366724983    -1.5130487791     1.2948137702
Bq        -3.6365870321    -1.4680230827     1.2730725797
Bq        -3.6365015660    -1.4229973864     1.2513313892
Bq        -3.6364160999    -1.3779716901     1.2295901986
Bq        -3.6363306337    -1.3329459937     1.2078490081
Bq        -3.6362451676    -1.2879202974     1.1861078176
Bq        -3.6361597015    -1.2428946011     1.1643666271
Bq        -3.6360742353    -1.1978689047     1.1426254366
Bq        -3.6359887692    -1.1528432084     1.1208842461
Bq        -3.6359033030    -1.1078175120     1.0991430555
Bq        -3.6358178369    -1.0627918157     1.0774018650
Bq        -3.6357323708    -1.0177661194     1.0556606745
Bq        -3.6356469046    -0.9727404230     1.0339194840
Bq        -3.6355614385    -0.9277147267     1.0121782935
Bq        -3.6354759724    -0.8826890304     0.9904371030
Bq        -3.6353905062    -0.8376633340     0.9686959125
Bq        -3.6353050401    -0.7926376377     0.9469547219
Bq        -3.6352195740    -0.7476119414     0.9252135314
Bq        -3.6351341078    -0.7025862450     0.9034723409
Bq        -3.6350486417    -0.6575605487     0.8817311504
Bq        -3.6349631755    -0.6125348524     0.8599899599
Bq        -3.6348777094    -0.5675091560     0.8382487694
Bq        -3.6347922433    -0.5224834597     0.8165075788
Bq        -3.6347067771    -0.4774577634     0.7947663883
Bq        -3.6346213110    -0.4324320670     0.7730251978
Bq        -3.6345358449    -0.3874063707     0.7512840073
Bq        -3.6344503787    -0.3423806743     0.7295428168
Bq        -3.6343649126    -0.2973549780     0.7078016263
Bq        -3.6342794464    -0.2523292817     0.6860604357
Bq        -3.6341939803    -0.2073035853     0.6643192452
Bq        -3.6341085142    -0.1622778890     0.6425780547
Bq        -3.6340230480    -0.1172521927     0.6208368642
Bq        -3.6339375819    -0.0722264963     0.5990956737
Bq        -3.6338521158    -0.0272008000     0.5773544832
Bq        -3.6337666496     0.0178248963     0.5556132926
Bq        -3.6336811835     0.0628505927     0.5338721021
Bq        -3.6335957173     0.1078762890     0.5121309116
Bq        -3.6335102512     0.1529019853     0.4903897211
Bq        -3.6334247851     0.1979276817     0.4686485306
Bq        -3.6333393189     0.2429533780     0.4469073401
Bq        -3.6332538528     0.2879790743     0.4251661495
Bq        -3.6331683867     0.3330047707     0.4034249590
Bq        -3.6330829205     0.3780304670     0.3816837685
Bq        -3.6329974544     0.4230561634     0.3599425780
Bq        -3.6329119882     0.4680818597     0.3382013875
Bq        -3.6328265221     0.5131075560     0.3164601970
Bq        -3.6327410560     0.5581332524     0.2947190064
Bq        -3.6326555898     0.6031589487     0.2729778159
Bq        -3.6325701237     0.6481846450     0.2512366254

1
2
3
4
5
6
7
8
9
10
11
12
13
14
15
16
17
18
19
20
21
22
23
24
25
26
27
28
29
30
31
32
33
34
35
36
37
38
39
40
41
42
43
44
45
46
47
48
49
50
51
52
53
54
55
56
57
58
59
60
61
62
63
64
65
66
67
68
69
70
71
72
73
74
75
76
77
78
79
80
81
82
83
84
85
86
87
88
89
90
91
92
93
94
95
96
97
98
99
100
101
102
103
104
105
106
107
108
109
110
111
112
113
114
115
116
117
118
119
120
121
122
123
124
125
126
127
128
129
130
131
132
133
134
135
136
137
138
139
140
141
142
143
144
145
146
147
148
149
150
151
152
153
154
155
156
157
158
159
160
161
162
163
164
165
166
167
168
169
170
171
172
173
174
175
176
177
178
179
180
181
182
183
184
185
186
187
188
189
190
191
192
193
194
195
196
197
198
199
200
201
202
203
204
205
206
207
208
209
210
211
212
213
214
215
216
217
218
219
220
221
222
223
224
225
226
227
228
229
230
231
232
233
234
235
236

