%nproc=8
%mem=1000MB
# rb3lyp/6-311+g** NMR geom=connectivity

Title

0 1
C    -4.0500558   -0.5771862    0.8136712
H    -5.0263804   -1.0082727    1.0024760
C    -3.9381552    0.6617804    0.2400876
H    -4.8252424    1.2338890   -0.0111295
C    -2.6768410    1.2433246    0.0057578
C    -1.4974121    0.5051527    0.2848253
C    -1.6508332   -0.7338728    0.9404026
H    -0.7713646   -1.2730967    1.2633753
C    -2.8898548   -1.2624035    1.1994307
H    -2.9683706   -2.2124563    1.7152676
C    -2.5773185    2.5963696   -0.4192930
H    -3.4870728    3.1412239   -0.6474055
C    -1.3741895    3.2147896   -0.4364030
H    -1.2997315    4.2742019   -0.6578144
C    -0.1719488    2.4994090   -0.1734588
C    -0.2043917    1.1018437    0.0192689
C     1.0513491    3.2042560   -0.0676222
H     1.0427344    4.2819499   -0.1896997
C     2.1942091    2.5487446    0.2579577
H     3.1168527    3.0912848    0.4334727
C     2.2216473    1.1336562    0.2934990
C     1.0486931    0.3945528    0.0302412
C     3.4483363    0.4614633    0.5573939
H     4.3095794    1.0606054    0.8334846
C     3.5427346   -0.8855926    0.4749463
H     4.4731467   -1.3939704    0.7038822
C     2.4490052   -1.6474447   -0.0196319
C     1.2150704   -1.0057258   -0.3013573
C     0.2531113   -1.7434440   -1.0216591
H    -0.6541356   -1.2535051   -1.3462847
C     0.4494193   -3.0628597   -1.3413779
H    -0.3083162   -3.5944309   -1.9054060
C     1.6251726   -3.7207967   -0.9552541
H     1.7670048   -4.7687404   -1.1927019
C     2.6109872   -3.0144177   -0.3183050
H     3.5525612   -3.4902813   -0.0646367
Bq         2.0006019768    -2.9441393296    -0.5775534208
Bq         1.9950987401    -2.8959428383    -0.5654367956
Bq         1.9895955034    -2.8477463469    -0.5533201703
Bq         1.9840922667    -2.7995498555    -0.5412035451
Bq         1.9785890300    -2.7513533642    -0.5290869199
Bq         1.9730857934    -2.7031568728    -0.5169702946
Bq         1.9675825567    -2.6549603815    -0.5048536694
Bq         1.9620793200    -2.6067638901    -0.4927370442
Bq         1.9565760833    -2.5585673988    -0.4806204190
Bq         1.9510728466    -2.5103709074    -0.4685037937
Bq         1.9455696099    -2.4621744160    -0.4563871685
Bq         1.9400663732    -2.4139779247    -0.4442705433
Bq         1.9345631366    -2.3657814333    -0.4321539180
Bq         1.9290598999    -2.3175849420    -0.4200372928
Bq         1.9235566632    -2.2693884506    -0.4079206676
Bq         1.9180534265    -2.2211919593    -0.3958040424
Bq         1.9125501898    -2.1729954679    -0.3836874171
Bq         1.9070469531    -2.1247989766    -0.3715707919
Bq         1.9015437164    -2.0766024852    -0.3594541667
Bq         1.8960404798    -2.0284059938    -0.3473375414
Bq         1.8905372431    -1.9802095025    -0.3352209162
Bq         1.8850340064    -1.9320130111    -0.3231042910
Bq         1.8795307697    -1.8838165198    -0.3109876658
Bq         1.8740275330    -1.8356200284    -0.2988710405
Bq         1.8685242963    -1.7874235371    -0.2867544153
Bq         1.8630210596    -1.7392270457    -0.2746377901
Bq         1.8575178230    -1.6910305543    -0.2625211648
Bq         1.8520145863    -1.6428340630    -0.2504045396
Bq         1.8465113496    -1.5946375716    -0.2382879144
Bq         1.8410081129    -1.5464410803    -0.2261712892
Bq         1.8355048762    -1.4982445889    -0.2140546639
Bq         1.8300016395    -1.4500480976    -0.2019380387
Bq         1.8244984028    -1.4018516062    -0.1898214135
Bq         1.8189951662    -1.3536551149    -0.1777047882
Bq         1.8134919295    -1.3054586235    -0.1655881630
Bq         1.8079886928    -1.2572621321    -0.1534715378
Bq         1.8024854561    -1.2090656408    -0.1413549125
Bq         1.7969822194    -1.1608691494    -0.1292382873
Bq         1.7914789827    -1.1126726581    -0.1171216621
Bq         1.7859757460    -1.0644761667    -0.1050050369
Bq         1.7804725093    -1.0162796754    -0.0928884116
Bq         1.7749692727    -0.9680831840    -0.0807717864
Bq         1.7694660360    -0.9198866927    -0.0686551612
Bq         1.7639627993    -0.8716902013    -0.0565385359
Bq         1.7584595626    -0.8234937099    -0.0444219107
Bq         1.7529563259    -0.7752972186    -0.0323052855
Bq         1.7474530892    -0.7271007272    -0.0201886603
Bq         1.7419498525    -0.6789042359    -0.0080720350
Bq         1.7364466159    -0.6307077445     0.0040445902
Bq         1.7309433792    -0.5825112532     0.0161612154
Bq         1.7254401425    -0.5343147618     0.0282778407
Bq         1.7199369058    -0.4861182704     0.0403944659
Bq         1.7144336691    -0.4379217791     0.0525110911
Bq         1.7089304324    -0.3897252877     0.0646277163
Bq         1.7034271957    -0.3415287964     0.0767443416
Bq         1.6979239591    -0.2933323050     0.0888609668
Bq         1.6924207224    -0.2451358137     0.1009775920
Bq         1.6869174857    -0.1969393223     0.1130942173
Bq         1.6814142490    -0.1487428310     0.1252108425
Bq         1.6759110123    -0.1005463396     0.1373274677
Bq         1.6704077756    -0.0523498482     0.1494440929
Bq         1.6649045389    -0.0041533569     0.1615607182
Bq         1.6594013023     0.0440431345     0.1736773434
Bq         2.2552494075    -4.7756060011    -1.0173084857
Bq         2.2497461708    -4.7274095098    -1.0051918605
Bq         2.2442429341    -4.6792130184    -0.9930752352
Bq         2.2387396975    -4.6310165271    -0.9809586100
Bq         2.2332364608    -4.5828200357    -0.9688419848
Bq         2.2277332241    -4.5346235444    -0.9567253595
Bq         2.2222299874    -4.4864270530    -0.9446087343
Bq         2.2167267507    -4.4382305616    -0.9324921091
Bq         2.2112235140    -4.3900340703    -0.9203754838
Bq         2.2057202773    -4.3418375789    -0.9082588586
Bq         2.2002170407    -4.2936410876    -0.8961422334
Bq         2.1947138040    -4.2454445962    -0.8840256082
Bq         2.1892105673    -4.1972481049    -0.8719089829
Bq         2.1837073306    -4.1490516135    -0.8597923577
Bq         2.1782040939    -4.1008551222    -0.8476757325
Bq         2.1727008572    -4.0526586308    -0.8355591072
Bq         2.1671976205    -4.0044621394    -0.8234424820
Bq         2.1616943839    -3.9562656481    -0.8113258568
Bq         2.1561911472    -3.9080691567    -0.7992092316
Bq         2.1506879105    -3.8598726654    -0.7870926063
Bq         2.1451846738    -3.8116761740    -0.7749759811
Bq         2.1396814371    -3.7634796827    -0.7628593559
Bq         2.1341782004    -3.7152831913    -0.7507427306
Bq         2.1286749637    -3.6670866999    -0.7386261054
Bq         2.1231717271    -3.6188902086    -0.7265094802
Bq         2.1176684904    -3.5706937172    -0.7143928550
Bq         2.1121652537    -3.5224972259    -0.7022762297
Bq         2.1066620170    -3.4743007345    -0.6901596045
Bq         2.1011587803    -3.4261042432    -0.6780429793
Bq         2.0956555436    -3.3779077518    -0.6659263540
Bq         2.0901523069    -3.3297112605    -0.6538097288
Bq         2.0846490702    -3.2815147691    -0.6416931036
Bq         2.0791458336    -3.2333182777    -0.6295764784
Bq         2.0736425969    -3.1851217864    -0.6174598531
Bq         2.0681393602    -3.1369252950    -0.6053432279
Bq         2.0626361235    -3.0887288037    -0.5932266027
Bq         2.0571328868    -3.0405323123    -0.5811099774
Bq         2.0516296501    -2.9923358210    -0.5689933522
Bq         2.0461264134    -2.9441393296    -0.5568767270
Bq         2.0406231768    -2.8959428383    -0.5447601017
Bq         2.0351199401    -2.8477463469    -0.5326434765
Bq         2.0296167034    -2.7995498555    -0.5205268513
Bq         2.0241134667    -2.7513533642    -0.5084102261
Bq         2.0186102300    -2.7031568728    -0.4962936008
Bq         2.0131069933    -2.6549603815    -0.4841769756
Bq         2.0076037566    -2.6067638901    -0.4720603504
Bq         2.0021005200    -2.5585673988    -0.4599437251
Bq         1.9965972833    -2.5103709074    -0.4478270999
Bq         1.9910940466    -2.4621744160    -0.4357104747
Bq         1.9855908099    -2.4139779247    -0.4235938495
Bq         1.9800875732    -2.3657814333    -0.4114772242
Bq         1.9745843365    -2.3175849420    -0.3993605990
Bq         1.9690810998    -2.2693884506    -0.3872439738
Bq         1.9635778632    -2.2211919593    -0.3751273485
Bq         1.9580746265    -2.1729954679    -0.3630107233
Bq         1.9525713898    -2.1247989766    -0.3508940981
Bq         1.9470681531    -2.0766024852    -0.3387774729
Bq         1.9415649164    -2.0284059938    -0.3266608476
Bq         1.9360616797    -1.9802095025    -0.3145442224
Bq         1.9305584430    -1.9320130111    -0.3024275972
Bq         1.9250552064    -1.8838165198    -0.2903109719
Bq         1.9195519697    -1.8356200284    -0.2781943467
Bq         1.9140487330    -1.7874235371    -0.2660777215
Bq         1.9085454963    -1.7392270457    -0.2539610963
Bq         1.9030422596    -1.6910305543    -0.2418444710
Bq         1.8975390229    -1.6428340630    -0.2297278458
Bq         1.8920357862    -1.5946375716    -0.2176112206
Bq         1.8865325496    -1.5464410803    -0.2054945953
Bq         1.8810293129    -1.4982445889    -0.1933779701
Bq         1.8755260762    -1.4500480976    -0.1812613449
Bq         1.8700228395    -1.4018516062    -0.1691447196
Bq         1.8645196028    -1.3536551149    -0.1570280944
Bq         1.8590163661    -1.3054586235    -0.1449114692
Bq         1.8535131294    -1.2572621321    -0.1327948440
Bq         1.8480098927    -1.2090656408    -0.1206782187
Bq         1.8425066561    -1.1608691494    -0.1085615935
Bq         1.8370034194    -1.1126726581    -0.0964449683
Bq         1.8315001827    -1.0644761667    -0.0843283430
Bq         1.8259969460    -1.0162796754    -0.0722117178
Bq         1.8204937093    -0.9680831840    -0.0600950926
Bq         1.8149904726    -0.9198866927    -0.0479784674
Bq         1.8094872359    -0.8716902013    -0.0358618421
Bq         1.8039839993    -0.8234937099    -0.0237452169
Bq         1.7984807626    -0.7752972186    -0.0116285917
Bq         1.7929775259    -0.7271007272     0.0004880336
Bq         1.7874742892    -0.6789042359     0.0126046588
Bq         1.7819710525    -0.6307077445     0.0247212840
Bq         1.7764678158    -0.5825112532     0.0368379092
Bq         1.7709645791    -0.5343147618     0.0489545345
Bq         1.7654613425    -0.4861182704     0.0610711597
Bq         1.7599581058    -0.4379217791     0.0731877849
Bq         1.7544548691    -0.3897252877     0.0853044102
Bq         1.7489516324    -0.3415287964     0.0974210354
Bq         1.7434483957    -0.2933323050     0.1095376606
Bq         1.7379451590    -0.2451358137     0.1216542858
Bq         1.7324419223    -0.1969393223     0.1337709111
Bq         1.7269386857    -0.1487428310     0.1458875363
Bq         1.7214354490    -0.1005463396     0.1580041615
Bq         1.7159322123    -0.0523498482     0.1701207868
Bq         1.7104289756    -0.0041533569     0.1822374120
Bq         1.7049257389     0.0440431345     0.1943540372
Bq         2.3007738442    -4.7756060011    -0.9966317919
Bq         2.2952706075    -4.7274095098    -0.9845151666
Bq         2.2897673708    -4.6792130184    -0.9723985414
Bq         2.2842641341    -4.6310165271    -0.9602819162
Bq         2.2787608974    -4.5828200357    -0.9481652909
Bq         2.2732576607    -4.5346235444    -0.9360486657
Bq         2.2677544241    -4.4864270530    -0.9239320405
Bq         2.2622511874    -4.4382305616    -0.9118154153
Bq         2.2567479507    -4.3900340703    -0.8996987900
Bq         2.2512447140    -4.3418375789    -0.8875821648
Bq         2.2457414773    -4.2936410876    -0.8754655396
Bq         2.2402382406    -4.2454445962    -0.8633489143
Bq         2.2347350039    -4.1972481049    -0.8512322891
Bq         2.2292317673    -4.1490516135    -0.8391156639
Bq         2.2237285306    -4.1008551222    -0.8269990387
Bq         2.2182252939    -4.0526586308    -0.8148824134
Bq         2.2127220572    -4.0044621394    -0.8027657882
Bq         2.2072188205    -3.9562656481    -0.7906491630
Bq         2.2017155838    -3.9080691567    -0.7785325377
Bq         2.1962123471    -3.8598726654    -0.7664159125
Bq         2.1907091105    -3.8116761740    -0.7542992873
Bq         2.1852058738    -3.7634796827    -0.7421826621
Bq         2.1797026371    -3.7152831913    -0.7300660368
Bq         2.1741994004    -3.6670866999    -0.7179494116
Bq         2.1686961637    -3.6188902086    -0.7058327864
Bq         2.1631929270    -3.5706937172    -0.6937161611
Bq         2.1576896903    -3.5224972259    -0.6815995359
Bq         2.1521864537    -3.4743007345    -0.6694829107
Bq         2.1466832170    -3.4261042432    -0.6573662855
Bq         2.1411799803    -3.3779077518    -0.6452496602
Bq         2.1356767436    -3.3297112605    -0.6331330350
Bq         2.1301735069    -3.2815147691    -0.6210164098
Bq         2.1246702702    -3.2333182777    -0.6088997845
Bq         2.1191670335    -3.1851217864    -0.5967831593
Bq         2.1136637968    -3.1369252950    -0.5846665341
Bq         2.1081605602    -3.0887288037    -0.5725499089

1
2
3
4
5
6
7
8
9
10
11
12
13
14
15
16
17
18
19
20
21
22
23
24
25
26
27
28
29
30
31
32
33
34
35
36
37
38
39
40
41
42
43
44
45
46
47
48
49
50
51
52
53
54
55
56
57
58
59
60
61
62
63
64
65
66
67
68
69
70
71
72
73
74
75
76
77
78
79
80
81
82
83
84
85
86
87
88
89
90
91
92
93
94
95
96
97
98
99
100
101
102
103
104
105
106
107
108
109
110
111
112
113
114
115
116
117
118
119
120
121
122
123
124
125
126
127
128
129
130
131
132
133
134
135
136
137
138
139
140
141
142
143
144
145
146
147
148
149
150
151
152
153
154
155
156
157
158
159
160
161
162
163
164
165
166
167
168
169
170
171
172
173
174
175
176
177
178
179
180
181
182
183
184
185
186
187
188
189
190
191
192
193
194
195
196
197
198
199
200
201
202
203
204
205
206
207
208
209
210
211
212
213
214
215
216
217
218
219
220
221
222
223
224
225
226
227
228
229
230
231
232
233
234
235
236

