%nproc=8
%mem=1000MB
# rb3lyp/6-311+g** NMR geom=connectivity

Title

0 1
C    -4.0500558   -0.5771862    0.8136712
H    -5.0263804   -1.0082727    1.0024760
C    -3.9381552    0.6617804    0.2400876
H    -4.8252424    1.2338890   -0.0111295
C    -2.6768410    1.2433246    0.0057578
C    -1.4974121    0.5051527    0.2848253
C    -1.6508332   -0.7338728    0.9404026
H    -0.7713646   -1.2730967    1.2633753
C    -2.8898548   -1.2624035    1.1994307
H    -2.9683706   -2.2124563    1.7152676
C    -2.5773185    2.5963696   -0.4192930
H    -3.4870728    3.1412239   -0.6474055
C    -1.3741895    3.2147896   -0.4364030
H    -1.2997315    4.2742019   -0.6578144
C    -0.1719488    2.4994090   -0.1734588
C    -0.2043917    1.1018437    0.0192689
C     1.0513491    3.2042560   -0.0676222
H     1.0427344    4.2819499   -0.1896997
C     2.1942091    2.5487446    0.2579577
H     3.1168527    3.0912848    0.4334727
C     2.2216473    1.1336562    0.2934990
C     1.0486931    0.3945528    0.0302412
C     3.4483363    0.4614633    0.5573939
H     4.3095794    1.0606054    0.8334846
C     3.5427346   -0.8855926    0.4749463
H     4.4731467   -1.3939704    0.7038822
C     2.4490052   -1.6474447   -0.0196319
C     1.2150704   -1.0057258   -0.3013573
C     0.2531113   -1.7434440   -1.0216591
H    -0.6541356   -1.2535051   -1.3462847
C     0.4494193   -3.0628597   -1.3413779
H    -0.3083162   -3.5944309   -1.9054060
C     1.6251726   -3.7207967   -0.9552541
H     1.7670048   -4.7687404   -1.1927019
C     2.6109872   -3.0144177   -0.3183050
H     3.5525612   -3.4902813   -0.0646367
Bq         4.4785069711    -2.4358010688     0.4279931382
Bq         4.4766614458    -2.3863097218     0.4348634079
Bq         4.4748159206    -2.3368183748     0.4417336777
Bq         4.4729703953    -2.2873270277     0.4486039475
Bq         4.4711248700    -2.2378356807     0.4554742173
Bq         4.4692793448    -2.1883443337     0.4623444871
Bq         4.4674338195    -2.1388529867     0.4692147568
Bq         4.4655882942    -2.0893616397     0.4760850266
Bq         4.4637427690    -2.0398702926     0.4829552964
Bq         4.4618972437    -1.9903789456     0.4898255662
Bq         4.4600517184    -1.9408875986     0.4966958360
Bq         4.4582061932    -1.8913962516     0.5035661057
Bq         4.4563606679    -1.8419049046     0.5104363755
Bq         4.4545151426    -1.7924135576     0.5173066453
Bq         4.4526696174    -1.7429222105     0.5241769151
Bq         4.4508240921    -1.6934308635     0.5310471849
Bq         4.4489785668    -1.6439395165     0.5379174546
Bq         4.4471330416    -1.5944481695     0.5447877244
Bq         4.4452875163    -1.5449568225     0.5516579942
Bq         4.4434419910    -1.4954654754     0.5585282640
Bq         4.4415964658    -1.4459741284     0.5653985338
Bq         4.4397509405    -1.3964827814     0.5722688035
Bq         4.4379054152    -1.3469914344     0.5791390733
Bq         4.4360598900    -1.2975000874     0.5860093431
Bq         4.4342143647    -1.2480087404     0.5928796129
Bq         4.4323688394    -1.1985173933     0.5997498827
Bq         4.4305233142    -1.1490260463     0.6066201524
Bq         4.4286777889    -1.0995346993     0.6134904222
Bq         4.4268322636    -1.0500433523     0.6203606920
Bq         4.4249867383    -1.0005520053     0.6272309618
Bq         4.4231412131    -0.9510606583     0.6341012316
Bq         4.4212956878    -0.9015693112     0.6409715013
Bq         4.4194501625    -0.8520779642     0.6478417711
Bq         4.4176046373    -0.8025866172     0.6547120409
Bq         4.4157591120    -0.7530952702     0.6615823107
Bq         4.4139135867    -0.7036039232     0.6684525804
Bq         4.4120680615    -0.6541125761     0.6753228502
Bq         4.4102225362    -0.6046212291     0.6821931200
Bq         4.4083770109    -0.5551298821     0.6890633898
Bq         4.4065314857    -0.5056385351     0.6959336596
Bq         4.4046859604    -0.4561471881     0.7028039293
Bq         4.4028404351    -0.4066558411     0.7096741991
Bq         4.4009949099    -0.3571644940     0.7165444689
Bq         4.3991493846    -0.3076731470     0.7234147387
Bq         4.3973038593    -0.2581818000     0.7302850085
Bq         4.3954583341    -0.2086904530     0.7371552782
Bq         4.3936128088    -0.1591991060     0.7440255480
Bq         4.3917672835    -0.1097077589     0.7508958178
Bq         4.3899217583    -0.0602164119     0.7577660876
Bq         4.3880762330    -0.0107250649     0.7646363574
Bq         4.3862307077     0.0387662821     0.7715066271
Bq         4.3843851825     0.0882576291     0.7783768969
Bq         4.3825396572     0.1377489761     0.7852471667
Bq         4.3806941319     0.1872403232     0.7921174365
Bq         4.3788486067     0.2367316702     0.7989877063
Bq         4.3770030814     0.2862230172     0.8058579760
Bq         4.3751575561     0.3357143642     0.8127282458
Bq         4.3733120309     0.3852057112     0.8195985156
Bq         4.3714665056     0.4346970583     0.8264687854
Bq         4.3696209803     0.4841884053     0.8333390552
Bq         4.3677754551     0.5336797523     0.8402093249
Bq         4.3659299298     0.5831710993     0.8470795947
Bq         4.3640844045     0.6326624463     0.8539498645
Bq         4.3622388792     0.6821537933     0.8608201343
Bq         4.3603933540     0.7316451404     0.8676904041
Bq         4.3585478287     0.7811364874     0.8745606738
Bq         4.3567023034     0.8306278344     0.8814309436
Bq         4.3548567782     0.8801191814     0.8883012134
Bq         4.3530112529     0.9296105284     0.8951714832
Bq         4.3511657276     0.9791018754     0.9020417529
Bq         4.3493202024     1.0285932225     0.9089120227
Bq         4.3474746771     1.0780845695     0.9157822925
Bq         4.3456291518     1.1275759165     0.9226525623
Bq         4.3437836266     1.1770672635     0.9295228321
Bq         4.3419381013     1.2265586105     0.9363931018
Bq         4.3400925760     1.2760499576     0.9432633716
Bq         4.3382470508     1.3255413046     0.9501336414
Bq         4.3364015255     1.3750326516     0.9570039112
Bq         4.3345560002     1.4245239986     0.9638741810
Bq         4.3327104750     1.4740153456     0.9707444507
Bq         4.3308649497     1.5235066926     0.9776147205
Bq         4.3290194244     1.5729980397     0.9844849903
Bq         4.3271738992     1.6224893867     0.9913552601
Bq         4.3253283739     1.6719807337     0.9982255299
Bq         4.3234828486     1.7214720807     1.0050957996
Bq         4.3216373234     1.7709634277     1.0119660694
Bq         4.3197917981     1.8204547748     1.0188363392
Bq         4.3179462728     1.8699461218     1.0257066090
Bq         4.3161007476     1.9194374688     1.0325768788
Bq         4.3142552223     1.9689288158     1.0394471485
Bq         4.3124096970     2.0184201628     1.0463174183
Bq         4.3105641718     2.0679115098     1.0531876881
Bq         4.3087186465     2.1174028569     1.0600579579
Bq         4.3068731212     2.1668942039     1.0669282277
Bq         4.3050275959     2.2163855509     1.0737984974
Bq         4.5378682477    -2.7327491509     0.3997429104
Bq         4.5360227225    -2.6832578039     0.4066131802
Bq         4.5341771972    -2.6337664569     0.4134834499
Bq         4.5323316719    -2.5842751098     0.4203537197
Bq         4.5304861467    -2.5347837628     0.4272239895
Bq         4.5286406214    -2.4852924158     0.4340942593
Bq         4.5267950961    -2.4358010688     0.4409645291
Bq         4.5249495709    -2.3863097218     0.4478347988
Bq         4.5231040456    -2.3368183748     0.4547050686
Bq         4.5212585203    -2.2873270277     0.4615753384
Bq         4.5194129951    -2.2378356807     0.4684456082
Bq         4.5175674698    -2.1883443337     0.4753158780
Bq         4.5157219445    -2.1388529867     0.4821861477
Bq         4.5138764193    -2.0893616397     0.4890564175
Bq         4.5120308940    -2.0398702926     0.4959266873
Bq         4.5101853687    -1.9903789456     0.5027969571
Bq         4.5083398435    -1.9408875986     0.5096672269
Bq         4.5064943182    -1.8913962516     0.5165374966
Bq         4.5046487929    -1.8419049046     0.5234077664
Bq         4.5028032677    -1.7924135576     0.5302780362
Bq         4.5009577424    -1.7429222105     0.5371483060
Bq         4.4991122171    -1.6934308635     0.5440185758
Bq         4.4972666919    -1.6439395165     0.5508888455
Bq         4.4954211666    -1.5944481695     0.5577591153
Bq         4.4935756413    -1.5449568225     0.5646293851
Bq         4.4917301160    -1.4954654754     0.5714996549
Bq         4.4898845908    -1.4459741284     0.5783699247
Bq         4.4880390655    -1.3964827814     0.5852401944
Bq         4.4861935402    -1.3469914344     0.5921104642
Bq         4.4843480150    -1.2975000874     0.5989807340
Bq         4.4825024897    -1.2480087404     0.6058510038
Bq         4.4806569644    -1.1985173933     0.6127212735
Bq         4.4788114392    -1.1490260463     0.6195915433
Bq         4.4769659139    -1.0995346993     0.6264618131
Bq         4.4751203886    -1.0500433523     0.6333320829
Bq         4.4732748634    -1.0005520053     0.6402023527
Bq         4.4714293381    -0.9510606583     0.6470726224
Bq         4.4695838128    -0.9015693112     0.6539428922
Bq         4.4677382876    -0.8520779642     0.6608131620
Bq         4.4658927623    -0.8025866172     0.6676834318
Bq         4.4640472370    -0.7530952702     0.6745537016
Bq         4.4622017118    -0.7036039232     0.6814239713
Bq         4.4603561865    -0.6541125761     0.6882942411
Bq         4.4585106612    -0.6046212291     0.6951645109
Bq         4.4566651360    -0.5551298821     0.7020347807
Bq         4.4548196107    -0.5056385351     0.7089050505
Bq         4.4529740854    -0.4561471881     0.7157753202
Bq         4.4511285602    -0.4066558411     0.7226455900
Bq         4.4492830349    -0.3571644940     0.7295158598
Bq         4.4474375096    -0.3076731470     0.7363861296
Bq         4.4455919844    -0.2581818000     0.7432563994
Bq         4.4437464591    -0.2086904530     0.7501266691
Bq         4.4419009338    -0.1591991060     0.7569969389
Bq         4.4400554086    -0.1097077589     0.7638672087
Bq         4.4382098833    -0.0602164119     0.7707374785
Bq         4.4363643580    -0.0107250649     0.7776077483
Bq         4.4345188328     0.0387662821     0.7844780180
Bq         4.4326733075     0.0882576291     0.7913482878
Bq         4.4308277822     0.1377489761     0.7982185576
Bq         4.4289822569     0.1872403232     0.8050888274
Bq         4.4271367317     0.2367316702     0.8119590972
Bq         4.4252912064     0.2862230172     0.8188293669
Bq         4.4234456811     0.3357143642     0.8256996367
Bq         4.4216001559     0.3852057112     0.8325699065
Bq         4.4197546306     0.4346970583     0.8394401763
Bq         4.4179091053     0.4841884053     0.8463104460
Bq         4.4160635801     0.5336797523     0.8531807158
Bq         4.4142180548     0.5831710993     0.8600509856
Bq         4.4123725295     0.6326624463     0.8669212554
Bq         4.4105270043     0.6821537933     0.8737915252
Bq         4.4086814790     0.7316451404     0.8806617949
Bq         4.4068359537     0.7811364874     0.8875320647
Bq         4.4049904285     0.8306278344     0.8944023345
Bq         4.4031449032     0.8801191814     0.9012726043
Bq         4.4012993779     0.9296105284     0.9081428741
Bq         4.3994538527     0.9791018754     0.9150131438
Bq         4.3976083274     1.0285932225     0.9218834136
Bq         4.3957628021     1.0780845695     0.9287536834
Bq         4.3939172769     1.1275759165     0.9356239532
Bq         4.3920717516     1.1770672635     0.9424942230
Bq         4.3902262263     1.2265586105     0.9493644927
Bq         4.3883807011     1.2760499576     0.9562347625
Bq         4.3865351758     1.3255413046     0.9631050323
Bq         4.3846896505     1.3750326516     0.9699753021
Bq         4.3828441253     1.4245239986     0.9768455719
Bq         4.3809986000     1.4740153456     0.9837158416
Bq         4.3791530747     1.5235066926     0.9905861114
Bq         4.3773075495     1.5729980397     0.9974563812
Bq         4.3754620242     1.6224893867     1.0043266510
Bq         4.3736164989     1.6719807337     1.0111969208
Bq         4.3717709736     1.7214720807     1.0180671905
Bq         4.3699254484     1.7709634277     1.0249374603
Bq         4.3680799231     1.8204547748     1.0318077301
Bq         4.3662343978     1.8699461218     1.0386779999
Bq         4.3643888726     1.9194374688     1.0455482697
Bq         4.3625433473     1.9689288158     1.0524185394
Bq         4.3606978220     2.0184201628     1.0592888092
Bq         4.3588522968     2.0679115098     1.0661590790
Bq         4.3570067715     2.1174028569     1.0730293488
Bq         4.3551612462     2.1668942039     1.0798996186
Bq         4.3533157210     2.2163855509     1.0867698883
Bq         4.5861563728    -2.7327491509     0.4127143013
Bq         4.5843108475    -2.6832578039     0.4195845711
Bq         4.5824653222    -2.6337664569     0.4264548408
Bq         4.5806197970    -2.5842751098     0.4333251106

1
2
3
4
5
6
7
8
9
10
11
12
13
14
15
16
17
18
19
20
21
22
23
24
25
26
27
28
29
30
31
32
33
34
35
36
37
38
39
40
41
42
43
44
45
46
47
48
49
50
51
52
53
54
55
56
57
58
59
60
61
62
63
64
65
66
67
68
69
70
71
72
73
74
75
76
77
78
79
80
81
82
83
84
85
86
87
88
89
90
91
92
93
94
95
96
97
98
99
100
101
102
103
104
105
106
107
108
109
110
111
112
113
114
115
116
117
118
119
120
121
122
123
124
125
126
127
128
129
130
131
132
133
134
135
136
137
138
139
140
141
142
143
144
145
146
147
148
149
150
151
152
153
154
155
156
157
158
159
160
161
162
163
164
165
166
167
168
169
170
171
172
173
174
175
176
177
178
179
180
181
182
183
184
185
186
187
188
189
190
191
192
193
194
195
196
197
198
199
200
201
202
203
204
205
206
207
208
209
210
211
212
213
214
215
216
217
218
219
220
221
222
223
224
225
226
227
228
229
230
231
232
233
234
235
236

