%nproc=8
%mem=1000MB
# rb3lyp/6-311+g** NMR geom=connectivity

Title

0 1
C    -4.0500558   -0.5771862    0.8136712
H    -5.0263804   -1.0082727    1.0024760
C    -3.9381552    0.6617804    0.2400876
H    -4.8252424    1.2338890   -0.0111295
C    -2.6768410    1.2433246    0.0057578
C    -1.4974121    0.5051527    0.2848253
C    -1.6508332   -0.7338728    0.9404026
H    -0.7713646   -1.2730967    1.2633753
C    -2.8898548   -1.2624035    1.1994307
H    -2.9683706   -2.2124563    1.7152676
C    -2.5773185    2.5963696   -0.4192930
H    -3.4870728    3.1412239   -0.6474055
C    -1.3741895    3.2147896   -0.4364030
H    -1.2997315    4.2742019   -0.6578144
C    -0.1719488    2.4994090   -0.1734588
C    -0.2043917    1.1018437    0.0192689
C     1.0513491    3.2042560   -0.0676222
H     1.0427344    4.2819499   -0.1896997
C     2.1942091    2.5487446    0.2579577
H     3.1168527    3.0912848    0.4334727
C     2.2216473    1.1336562    0.2934990
C     1.0486931    0.3945528    0.0302412
C     3.4483363    0.4614633    0.5573939
H     4.3095794    1.0606054    0.8334846
C     3.5427346   -0.8855926    0.4749463
H     4.4731467   -1.3939704    0.7038822
C     2.4490052   -1.6474447   -0.0196319
C     1.2150704   -1.0057258   -0.3013573
C     0.2531113   -1.7434440   -1.0216591
H    -0.6541356   -1.2535051   -1.3462847
C     0.4494193   -3.0628597   -1.3413779
H    -0.3083162   -3.5944309   -1.9054060
C     1.6251726   -3.7207967   -0.9552541
H     1.7670048   -4.7687404   -1.1927019
C     2.6109872   -3.0144177   -0.3183050
H     3.5525612   -3.4902813   -0.0646367
Bq         3.6763685665    -1.6439395165     0.3303752003
Bq         3.6745230412    -1.5944481695     0.3372454701
Bq         3.6726775159    -1.5449568225     0.3441157399
Bq         3.6708319907    -1.4954654754     0.3509860097
Bq         3.6689864654    -1.4459741284     0.3578562794
Bq         3.6671409401    -1.3964827814     0.3647265492
Bq         3.6652954149    -1.3469914344     0.3715968190
Bq         3.6634498896    -1.2975000874     0.3784670888
Bq         3.6616043643    -1.2480087404     0.3853373586
Bq         3.6597588390    -1.1985173933     0.3922076283
Bq         3.6579133138    -1.1490260463     0.3990778981
Bq         3.6560677885    -1.0995346993     0.4059481679
Bq         3.6542222632    -1.0500433523     0.4128184377
Bq         3.6523767380    -1.0005520053     0.4196887075
Bq         3.6505312127    -0.9510606583     0.4265589772
Bq         3.6486856874    -0.9015693112     0.4334292470
Bq         3.6468401622    -0.8520779642     0.4402995168
Bq         3.6449946369    -0.8025866172     0.4471697866
Bq         3.6431491116    -0.7530952702     0.4540400564
Bq         3.6413035864    -0.7036039232     0.4609103261
Bq         3.6394580611    -0.6541125761     0.4677805959
Bq         3.6376125358    -0.6046212291     0.4746508657
Bq         3.6357670106    -0.5551298821     0.4815211355
Bq         3.6339214853    -0.5056385351     0.4883914053
Bq         3.6320759600    -0.4561471881     0.4952616750
Bq         3.6302304348    -0.4066558411     0.5021319448
Bq         3.6283849095    -0.3571644940     0.5090022146
Bq         3.6265393842    -0.3076731470     0.5158724844
Bq         3.6246938590    -0.2581818000     0.5227427542
Bq         3.6228483337    -0.2086904530     0.5296130239
Bq         3.6210028084    -0.1591991060     0.5364832937
Bq         3.6191572832    -0.1097077589     0.5433535635
Bq         3.6173117579    -0.0602164119     0.5502238333
Bq         3.6154662326    -0.0107250649     0.5570941030
Bq         3.6136207074     0.0387662821     0.5639643728
Bq         3.6117751821     0.0882576291     0.5708346426
Bq         3.6099296568     0.1377489761     0.5777049124
Bq         3.6080841316     0.1872403232     0.5845751822
Bq         3.6062386063     0.2367316702     0.5914454519
Bq         3.6043930810     0.2862230172     0.5983157217
Bq         3.6025475557     0.3357143642     0.6051859915
Bq         3.6007020305     0.3852057112     0.6120562613
Bq         3.5988565052     0.4346970583     0.6189265311
Bq         3.5970109799     0.4841884053     0.6257968008
Bq         3.5951654547     0.5336797523     0.6326670706
Bq         3.5933199294     0.5831710993     0.6395373404
Bq         3.5914744041     0.6326624463     0.6464076102
Bq         3.5896288789     0.6821537933     0.6532778800
Bq         3.5877833536     0.7316451404     0.6601481497
Bq         3.5859378283     0.7811364874     0.6670184195
Bq         3.5840923031     0.8306278344     0.6738886893
Bq         3.5822467778     0.8801191814     0.6807589591
Bq         3.5804012525     0.9296105284     0.6876292289
Bq         3.5785557273     0.9791018754     0.6944994986
Bq         3.5767102020     1.0285932225     0.7013697684
Bq         3.5748646767     1.0780845695     0.7082400382
Bq         3.5730191515     1.1275759165     0.7151103080
Bq         3.5711736262     1.1770672635     0.7219805778
Bq         3.5693281009     1.2265586105     0.7288508475
Bq         3.5674825757     1.2760499576     0.7357211173
Bq         3.5656370504     1.3255413046     0.7425913871
Bq         3.5637915251     1.3750326516     0.7494616569
Bq         3.5619459999     1.4245239986     0.7563319267
Bq         3.5601004746     1.4740153456     0.7632021964
Bq         3.5582549493     1.5235066926     0.7700724662
Bq         3.5564094241     1.5729980397     0.7769427360
Bq         3.5545638988     1.6224893867     0.7838130058
Bq         3.5527183735     1.6719807337     0.7906832755
Bq         3.5508728483     1.7214720807     0.7975535453
Bq         3.5490273230     1.7709634277     0.8044238151
Bq         3.5471817977     1.8204547748     0.8112940849
Bq         3.5453362725     1.8699461218     0.8181643547
Bq         3.5434907472     1.9194374688     0.8250346244
Bq         3.5416452219     1.9689288158     0.8319048942
Bq         3.5397996966     2.0184201628     0.8387751640
Bq         3.5379541714     2.0679115098     0.8456454338
Bq         3.5361086461     2.1174028569     0.8525157036
Bq         3.5342631208     2.1668942039     0.8593859733
Bq         3.5324175956     2.2163855509     0.8662562431
Bq         3.7652582474    -2.7327491509     0.1922006561
Bq         3.7634127221    -2.6832578039     0.1990709259
Bq         3.7615671968    -2.6337664569     0.2059411956
Bq         3.7597216716    -2.5842751098     0.2128114654
Bq         3.7578761463    -2.5347837628     0.2196817352
Bq         3.7560306210    -2.4852924158     0.2265520050
Bq         3.7541850958    -2.4358010688     0.2334222748
Bq         3.7523395705    -2.3863097218     0.2402925445
Bq         3.7504940452    -2.3368183748     0.2471628143
Bq         3.7486485200    -2.2873270277     0.2540330841
Bq         3.7468029947    -2.2378356807     0.2609033539
Bq         3.7449574694    -2.1883443337     0.2677736236
Bq         3.7431119442    -2.1388529867     0.2746438934
Bq         3.7412664189    -2.0893616397     0.2815141632
Bq         3.7394208936    -2.0398702926     0.2883844330
Bq         3.7375753684    -1.9903789456     0.2952547028
Bq         3.7357298431    -1.9408875986     0.3021249725
Bq         3.7338843178    -1.8913962516     0.3089952423
Bq         3.7320387926    -1.8419049046     0.3158655121
Bq         3.7301932673    -1.7924135576     0.3227357819
Bq         3.7283477420    -1.7429222105     0.3296060517
Bq         3.7265022167    -1.6934308635     0.3364763214
Bq         3.7246566915    -1.6439395165     0.3433465912
Bq         3.7228111662    -1.5944481695     0.3502168610
Bq         3.7209656409    -1.5449568225     0.3570871308
Bq         3.7191201157    -1.4954654754     0.3639574006
Bq         3.7172745904    -1.4459741284     0.3708276703
Bq         3.7154290651    -1.3964827814     0.3776979401
Bq         3.7135835399    -1.3469914344     0.3845682099
Bq         3.7117380146    -1.2975000874     0.3914384797
Bq         3.7098924893    -1.2480087404     0.3983087495
Bq         3.7080469641    -1.1985173933     0.4051790192
Bq         3.7062014388    -1.1490260463     0.4120492890
Bq         3.7043559135    -1.0995346993     0.4189195588
Bq         3.7025103883    -1.0500433523     0.4257898286
Bq         3.7006648630    -1.0005520053     0.4326600984
Bq         3.6988193377    -0.9510606583     0.4395303681
Bq         3.6969738125    -0.9015693112     0.4464006379
Bq         3.6951282872    -0.8520779642     0.4532709077
Bq         3.6932827619    -0.8025866172     0.4601411775
Bq         3.6914372367    -0.7530952702     0.4670114473
Bq         3.6895917114    -0.7036039232     0.4738817170
Bq         3.6877461861    -0.6541125761     0.4807519868
Bq         3.6859006609    -0.6046212291     0.4876222566
Bq         3.6840551356    -0.5551298821     0.4944925264
Bq         3.6822096103    -0.5056385351     0.5013627961
Bq         3.6803640851    -0.4561471881     0.5082330659
Bq         3.6785185598    -0.4066558411     0.5151033357
Bq         3.6766730345    -0.3571644940     0.5219736055
Bq         3.6748275093    -0.3076731470     0.5288438753
Bq         3.6729819840    -0.2581818000     0.5357141450
Bq         3.6711364587    -0.2086904530     0.5425844148
Bq         3.6692909334    -0.1591991060     0.5494546846
Bq         3.6674454082    -0.1097077589     0.5563249544
Bq         3.6655998829    -0.0602164119     0.5631952242
Bq         3.6637543576    -0.0107250649     0.5700654939
Bq         3.6619088324     0.0387662821     0.5769357637
Bq         3.6600633071     0.0882576291     0.5838060335
Bq         3.6582177818     0.1377489761     0.5906763033
Bq         3.6563722566     0.1872403232     0.5975465731
Bq         3.6545267313     0.2367316702     0.6044168428
Bq         3.6526812060     0.2862230172     0.6112871126
Bq         3.6508356808     0.3357143642     0.6181573824
Bq         3.6489901555     0.3852057112     0.6250276522
Bq         3.6471446302     0.4346970583     0.6318979220
Bq         3.6452991050     0.4841884053     0.6387681917
Bq         3.6434535797     0.5336797523     0.6456384615
Bq         3.6416080544     0.5831710993     0.6525087313
Bq         3.6397625292     0.6326624463     0.6593790011
Bq         3.6379170039     0.6821537933     0.6662492709
Bq         3.6360714786     0.7316451404     0.6731195406
Bq         3.6342259534     0.7811364874     0.6799898104
Bq         3.6323804281     0.8306278344     0.6868600802
Bq         3.6305349028     0.8801191814     0.6937303500
Bq         3.6286893776     0.9296105284     0.7006006198
Bq         3.6268438523     0.9791018754     0.7074708895
Bq         3.6249983270     1.0285932225     0.7143411593
Bq         3.6231528018     1.0780845695     0.7212114291
Bq         3.6213072765     1.1275759165     0.7280816989
Bq         3.6194617512     1.1770672635     0.7349519686
Bq         3.6176162260     1.2265586105     0.7418222384
Bq         3.6157707007     1.2760499576     0.7486925082
Bq         3.6139251754     1.3255413046     0.7555627780
Bq         3.6120796502     1.3750326516     0.7624330478
Bq         3.6102341249     1.4245239986     0.7693033175
Bq         3.6083885996     1.4740153456     0.7761735873
Bq         3.6065430743     1.5235066926     0.7830438571
Bq         3.6046975491     1.5729980397     0.7899141269
Bq         3.6028520238     1.6224893867     0.7967843967
Bq         3.6010064985     1.6719807337     0.8036546664
Bq         3.5991609733     1.7214720807     0.8105249362
Bq         3.5973154480     1.7709634277     0.8173952060
Bq         3.5954699227     1.8204547748     0.8242654758
Bq         3.5936243975     1.8699461218     0.8311357456
Bq         3.5917788722     1.9194374688     0.8380060153
Bq         3.5899333469     1.9689288158     0.8448762851
Bq         3.5880878217     2.0184201628     0.8517465549
Bq         3.5862422964     2.0679115098     0.8586168247
Bq         3.5843967711     2.1174028569     0.8654870945
Bq         3.5825512459     2.1668942039     0.8723573642
Bq         3.5807057206     2.2163855509     0.8792276340
Bq         3.8135463724    -2.7327491509     0.2051720470
Bq         3.8117008471    -2.6832578039     0.2120423167
Bq         3.8098553219    -2.6337664569     0.2189125865
Bq         3.8080097966    -2.5842751098     0.2257828563
Bq         3.8061642713    -2.5347837628     0.2326531261
Bq         3.8043187461    -2.4852924158     0.2395233959
Bq         3.8024732208    -2.4358010688     0.2463936656
Bq         3.8006276955    -2.3863097218     0.2532639354
Bq         3.7987821703    -2.3368183748     0.2601342052
Bq         3.7969366450    -2.2873270277     0.2670044750
Bq         3.7950911197    -2.2378356807     0.2738747448
Bq         3.7932455944    -2.1883443337     0.2807450145
Bq         3.7914000692    -2.1388529867     0.2876152843
Bq         3.7895545439    -2.0893616397     0.2944855541
Bq         3.7877090186    -2.0398702926     0.3013558239
Bq         3.7858634934    -1.9903789456     0.3082260937
Bq         3.7840179681    -1.9408875986     0.3150963634
Bq         3.7821724428    -1.8913962516     0.3219666332
Bq         3.7803269176    -1.8419049046     0.3288369030
Bq         3.7784813923    -1.7924135576     0.3357071728

1
2
3
4
5
6
7
8
9
10
11
12
13
14
15
16
17
18
19
20
21
22
23
24
25
26
27
28
29
30
31
32
33
34
35
36
37
38
39
40
41
42
43
44
45
46
47
48
49
50
51
52
53
54
55
56
57
58
59
60
61
62
63
64
65
66
67
68
69
70
71
72
73
74
75
76
77
78
79
80
81
82
83
84
85
86
87
88
89
90
91
92
93
94
95
96
97
98
99
100
101
102
103
104
105
106
107
108
109
110
111
112
113
114
115
116
117
118
119
120
121
122
123
124
125
126
127
128
129
130
131
132
133
134
135
136
137
138
139
140
141
142
143
144
145
146
147
148
149
150
151
152
153
154
155
156
157
158
159
160
161
162
163
164
165
166
167
168
169
170
171
172
173
174
175
176
177
178
179
180
181
182
183
184
185
186
187
188
189
190
191
192
193
194
195
196
197
198
199
200
201
202
203
204
205
206
207
208
209
210
211
212
213
214
215
216
217
218
219
220
221
222
223
224
225
226
227
228
229
230
231
232
233
234
235
236

