%nproc=8
%mem=1000MB
# rb3lyp/6-311+g** NMR geom=connectivity

Title

0 1
C    -4.0500558   -0.5771862    0.8136712
H    -5.0263804   -1.0082727    1.0024760
C    -3.9381552    0.6617804    0.2400876
H    -4.8252424    1.2338890   -0.0111295
C    -2.6768410    1.2433246    0.0057578
C    -1.4974121    0.5051527    0.2848253
C    -1.6508332   -0.7338728    0.9404026
H    -0.7713646   -1.2730967    1.2633753
C    -2.8898548   -1.2624035    1.1994307
H    -2.9683706   -2.2124563    1.7152676
C    -2.5773185    2.5963696   -0.4192930
H    -3.4870728    3.1412239   -0.6474055
C    -1.3741895    3.2147896   -0.4364030
H    -1.2997315    4.2742019   -0.6578144
C    -0.1719488    2.4994090   -0.1734588
C    -0.2043917    1.1018437    0.0192689
C     1.0513491    3.2042560   -0.0676222
H     1.0427344    4.2819499   -0.1896997
C     2.1942091    2.5487446    0.2579577
H     3.1168527    3.0912848    0.4334727
C     2.2216473    1.1336562    0.2934990
C     1.0486931    0.3945528    0.0302412
C     3.4483363    0.4614633    0.5573939
H     4.3095794    1.0606054    0.8334846
C     3.5427346   -0.8855926    0.4749463
H     4.4731467   -1.3939704    0.7038822
C     2.4490052   -1.6474447   -0.0196319
C     1.2150704   -1.0057258   -0.3013573
C     0.2531113   -1.7434440   -1.0216591
H    -0.6541356   -1.2535051   -1.3462847
C     0.4494193   -3.0628597   -1.3413779
H    -0.3083162   -3.5944309   -1.9054060
C     1.6251726   -3.7207967   -0.9552541
H     1.7670048   -4.7687404   -1.1927019
C     2.6109872   -3.0144177   -0.3183050
H     3.5525612   -3.4902813   -0.0646367
Bq         0.5680822484     1.4245239986    -0.0478943088
Bq         0.5662367231     1.4740153456    -0.0410240390
Bq         0.5643911979     1.5235066926    -0.0341537692
Bq         0.5625456726     1.5729980397    -0.0272834995
Bq         0.5607001473     1.6224893867    -0.0204132297
Bq         0.5588546221     1.6719807337    -0.0135429599
Bq         0.5570090968     1.7214720807    -0.0066726901
Bq         0.5551635715     1.7709634277     0.0001975797
Bq         0.5533180463     1.8204547748     0.0070678494
Bq         0.5514725210     1.8699461218     0.0139381192
Bq         0.5496269957     1.9194374688     0.0208083890
Bq         0.5477814705     1.9689288158     0.0276786588
Bq         0.5459359452     2.0184201628     0.0345489285
Bq         0.5440904199     2.0679115098     0.0414191983
Bq         0.5422448947     2.1174028569     0.0482894681
Bq         0.5403993694     2.1668942039     0.0551597379
Bq         0.5385538441     2.2163855509     0.0620300077
Bq         0.7713944959    -2.7327491509    -0.6120255794
Bq         0.7695489707    -2.6832578039    -0.6051553096
Bq         0.7677034454    -2.6337664569    -0.5982850398
Bq         0.7658579201    -2.5842751098    -0.5914147700
Bq         0.7640123949    -2.5347837628    -0.5845445003
Bq         0.7621668696    -2.4852924158    -0.5776742305
Bq         0.7603213443    -2.4358010688    -0.5708039607
Bq         0.7584758191    -2.3863097218    -0.5639336909
Bq         0.7566302938    -2.3368183748    -0.5570634211
Bq         0.7547847685    -2.2873270277    -0.5501931514
Bq         0.7529392432    -2.2378356807    -0.5433228816
Bq         0.7510937180    -2.1883443337    -0.5364526118
Bq         0.7492481927    -2.1388529867    -0.5295823420
Bq         0.7474026674    -2.0893616397    -0.5227120723
Bq         0.7455571422    -2.0398702926    -0.5158418025
Bq         0.7437116169    -1.9903789456    -0.5089715327
Bq         0.7418660916    -1.9408875986    -0.5021012629
Bq         0.7400205664    -1.8913962516    -0.4952309931
Bq         0.7381750411    -1.8419049046    -0.4883607234
Bq         0.7363295158    -1.7924135576    -0.4814904536
Bq         0.7344839906    -1.7429222105    -0.4746201838
Bq         0.7326384653    -1.6934308635    -0.4677499140
Bq         0.7307929400    -1.6439395165    -0.4608796442
Bq         0.7289474148    -1.5944481695    -0.4540093745
Bq         0.7271018895    -1.5449568225    -0.4471391047
Bq         0.7252563642    -1.4954654754    -0.4402688349
Bq         0.7234108390    -1.4459741284    -0.4333985651
Bq         0.7215653137    -1.3964827814    -0.4265282953
Bq         0.7197197884    -1.3469914344    -0.4196580256
Bq         0.7178742632    -1.2975000874    -0.4127877558
Bq         0.7160287379    -1.2480087404    -0.4059174860
Bq         0.7141832126    -1.1985173933    -0.3990472162
Bq         0.7123376874    -1.1490260463    -0.3921769464
Bq         0.7104921621    -1.0995346993    -0.3853066767
Bq         0.7086466368    -1.0500433523    -0.3784364069
Bq         0.7068011116    -1.0005520053    -0.3715661371
Bq         0.7049555863    -0.9510606583    -0.3646958673
Bq         0.7031100610    -0.9015693112    -0.3578255975
Bq         0.7012645358    -0.8520779642    -0.3509553278
Bq         0.6994190105    -0.8025866172    -0.3440850580
Bq         0.6975734852    -0.7530952702    -0.3372147882
Bq         0.6957279600    -0.7036039232    -0.3303445184
Bq         0.6938824347    -0.6541125761    -0.3234742486
Bq         0.6920369094    -0.6046212291    -0.3166039789
Bq         0.6901913841    -0.5551298821    -0.3097337091
Bq         0.6883458589    -0.5056385351    -0.3028634393
Bq         0.6865003336    -0.4561471881    -0.2959931695
Bq         0.6846548083    -0.4066558411    -0.2891228998
Bq         0.6828092831    -0.3571644940    -0.2822526300
Bq         0.6809637578    -0.3076731470    -0.2753823602
Bq         0.6791182325    -0.2581818000    -0.2685120904
Bq         0.6772727073    -0.2086904530    -0.2616418206
Bq         0.6754271820    -0.1591991060    -0.2547715509
Bq         0.6735816567    -0.1097077589    -0.2479012811
Bq         0.6717361315    -0.0602164119    -0.2410310113
Bq         0.6698906062    -0.0107250649    -0.2341607415
Bq         0.6680450809     0.0387662821    -0.2272904717
Bq         0.6661995557     0.0882576291    -0.2204202020
Bq         0.6643540304     0.1377489761    -0.2135499322
Bq         0.6625085051     0.1872403232    -0.2066796624
Bq         0.6606629799     0.2367316702    -0.1998093926
Bq         0.6588174546     0.2862230172    -0.1929391228
Bq         0.6569719293     0.3357143642    -0.1860688531
Bq         0.6551264041     0.3852057112    -0.1791985833
Bq         0.6532808788     0.4346970583    -0.1723283135
Bq         0.6514353535     0.4841884053    -0.1654580437
Bq         0.6495898283     0.5336797523    -0.1585877739
Bq         0.6477443030     0.5831710993    -0.1517175042
Bq         0.6458987777     0.6326624463    -0.1448472344
Bq         0.6440532525     0.6821537933    -0.1379769646
Bq         0.6422077272     0.7316451404    -0.1311066948
Bq         0.6403622019     0.7811364874    -0.1242364250
Bq         0.6385166767     0.8306278344    -0.1173661553
Bq         0.6366711514     0.8801191814    -0.1104958855
Bq         0.6348256261     0.9296105284    -0.1036256157
Bq         0.6329801009     0.9791018754    -0.0967553459
Bq         0.6311345756     1.0285932225    -0.0898850761
Bq         0.6292890503     1.0780845695    -0.0830148064
Bq         0.6274435250     1.1275759165    -0.0761445366
Bq         0.6255979998     1.1770672635    -0.0692742668
Bq         0.6237524745     1.2265586105    -0.0624039970
Bq         0.6219069492     1.2760499576    -0.0555337272
Bq         0.6200614240     1.3255413046    -0.0486634575
Bq         0.6182158987     1.3750326516    -0.0417931877
Bq         0.6163703734     1.4245239986    -0.0349229179
Bq         0.6145248482     1.4740153456    -0.0280526481
Bq         0.6126793229     1.5235066926    -0.0211823784
Bq         0.6108337976     1.5729980397    -0.0143121086
Bq         0.6089882724     1.6224893867    -0.0074418388
Bq         0.6071427471     1.6719807337    -0.0005715690
Bq         0.6052972218     1.7214720807     0.0062987008
Bq         0.6034516966     1.7709634277     0.0131689705
Bq         0.6016061713     1.8204547748     0.0200392403
Bq         0.5997606460     1.8699461218     0.0269095101
Bq         0.5979151208     1.9194374688     0.0337797799
Bq         0.5960695955     1.9689288158     0.0406500497
Bq         0.5942240702     2.0184201628     0.0475203194
Bq         0.5923785450     2.0679115098     0.0543905892
Bq         0.5905330197     2.1174028569     0.0612608590
Bq         0.5886874944     2.1668942039     0.0681311288
Bq         0.5868419692     2.2163855509     0.0750013986
Bq         0.8196826210    -2.7327491509    -0.5990541885
Bq         0.8178370957    -2.6832578039    -0.5921839187
Bq         0.8159915704    -2.6337664569    -0.5853136489
Bq         0.8141460451    -2.5842751098    -0.5784433792
Bq         0.8123005199    -2.5347837628    -0.5715731094
Bq         0.8104549946    -2.4852924158    -0.5647028396
Bq         0.8086094693    -2.4358010688    -0.5578325698
Bq         0.8067639441    -2.3863097218    -0.5509623000
Bq         0.8049184188    -2.3368183748    -0.5440920303
Bq         0.8030728935    -2.2873270277    -0.5372217605
Bq         0.8012273683    -2.2378356807    -0.5303514907
Bq         0.7993818430    -2.1883443337    -0.5234812209
Bq         0.7975363177    -2.1388529867    -0.5166109511
Bq         0.7956907925    -2.0893616397    -0.5097406814
Bq         0.7938452672    -2.0398702926    -0.5028704116
Bq         0.7919997419    -1.9903789456    -0.4960001418
Bq         0.7901542167    -1.9408875986    -0.4891298720
Bq         0.7883086914    -1.8913962516    -0.4822596022
Bq         0.7864631661    -1.8419049046    -0.4753893325
Bq         0.7846176409    -1.7924135576    -0.4685190627
Bq         0.7827721156    -1.7429222105    -0.4616487929
Bq         0.7809265903    -1.6934308635    -0.4547785231
Bq         0.7790810651    -1.6439395165    -0.4479082533
Bq         0.7772355398    -1.5944481695    -0.4410379836
Bq         0.7753900145    -1.5449568225    -0.4341677138
Bq         0.7735444893    -1.4954654754    -0.4272974440
Bq         0.7716989640    -1.4459741284    -0.4204271742
Bq         0.7698534387    -1.3964827814    -0.4135569044
Bq         0.7680079135    -1.3469914344    -0.4066866347
Bq         0.7661623882    -1.2975000874    -0.3998163649
Bq         0.7643168629    -1.2480087404    -0.3929460951
Bq         0.7624713377    -1.1985173933    -0.3860758253
Bq         0.7606258124    -1.1490260463    -0.3792055555
Bq         0.7587802871    -1.0995346993    -0.3723352858
Bq         0.7569347618    -1.0500433523    -0.3654650160
Bq         0.7550892366    -1.0005520053    -0.3585947462
Bq         0.7532437113    -0.9510606583    -0.3517244764
Bq         0.7513981860    -0.9015693112    -0.3448542067
Bq         0.7495526608    -0.8520779642    -0.3379839369
Bq         0.7477071355    -0.8025866172    -0.3311136671
Bq         0.7458616102    -0.7530952702    -0.3242433973
Bq         0.7440160850    -0.7036039232    -0.3173731275
Bq         0.7421705597    -0.6541125761    -0.3105028578
Bq         0.7403250344    -0.6046212291    -0.3036325880
Bq         0.7384795092    -0.5551298821    -0.2967623182
Bq         0.7366339839    -0.5056385351    -0.2898920484
Bq         0.7347884586    -0.4561471881    -0.2830217786
Bq         0.7329429334    -0.4066558411    -0.2761515089
Bq         0.7310974081    -0.3571644940    -0.2692812391
Bq         0.7292518828    -0.3076731470    -0.2624109693
Bq         0.7274063576    -0.2581818000    -0.2555406995
Bq         0.7255608323    -0.2086904530    -0.2486704297
Bq         0.7237153070    -0.1591991060    -0.2418001600
Bq         0.7218697818    -0.1097077589    -0.2349298902
Bq         0.7200242565    -0.0602164119    -0.2280596204
Bq         0.7181787312    -0.0107250649    -0.2211893506
Bq         0.7163332060     0.0387662821    -0.2143190808
Bq         0.7144876807     0.0882576291    -0.2074488111
Bq         0.7126421554     0.1377489761    -0.2005785413
Bq         0.7107966302     0.1872403232    -0.1937082715
Bq         0.7089511049     0.2367316702    -0.1868380017
Bq         0.7071055796     0.2862230172    -0.1799677319
Bq         0.7052600544     0.3357143642    -0.1730974622
Bq         0.7034145291     0.3852057112    -0.1662271924
Bq         0.7015690038     0.4346970583    -0.1593569226
Bq         0.6997234786     0.4841884053    -0.1524866528
Bq         0.6978779533     0.5336797523    -0.1456163830
Bq         0.6960324280     0.5831710993    -0.1387461133
Bq         0.6941869027     0.6326624463    -0.1318758435
Bq         0.6923413775     0.6821537933    -0.1250055737
Bq         0.6904958522     0.7316451404    -0.1181353039
Bq         0.6886503269     0.7811364874    -0.1112650341
Bq         0.6868048017     0.8306278344    -0.1043947644
Bq         0.6849592764     0.8801191814    -0.0975244946
Bq         0.6831137511     0.9296105284    -0.0906542248
Bq         0.6812682259     0.9791018754    -0.0837839550
Bq         0.6794227006     1.0285932225    -0.0769136853
Bq         0.6775771753     1.0780845695    -0.0700434155
Bq         0.6757316501     1.1275759165    -0.0631731457
Bq         0.6738861248     1.1770672635    -0.0563028759
Bq         0.6720405995     1.2265586105    -0.0494326061
Bq         0.6701950743     1.2760499576    -0.0425623364

1
2
3
4
5
6
7
8
9
10
11
12
13
14
15
16
17
18
19
20
21
22
23
24
25
26
27
28
29
30
31
32
33
34
35
36
37
38
39
40
41
42
43
44
45
46
47
48
49
50
51
52
53
54
55
56
57
58
59
60
61
62
63
64
65
66
67
68
69
70
71
72
73
74
75
76
77
78
79
80
81
82
83
84
85
86
87
88
89
90
91
92
93
94
95
96
97
98
99
100
101
102
103
104
105
106
107
108
109
110
111
112
113
114
115
116
117
118
119
120
121
122
123
124
125
126
127
128
129
130
131
132
133
134
135
136
137
138
139
140
141
142
143
144
145
146
147
148
149
150
151
152
153
154
155
156
157
158
159
160
161
162
163
164
165
166
167
168
169
170
171
172
173
174
175
176
177
178
179
180
181
182
183
184
185
186
187
188
189
190
191
192
193
194
195
196
197
198
199
200
201
202
203
204
205
206
207
208
209
210
211
212
213
214
215
216
217
218
219
220
221
222
223
224
225
226
227
228
229
230
231
232
233
234
235
236

