%nproc=8
%mem=1000MB
# rb3lyp/6-311+g** NMR geom=connectivity

Title

0 1
C    -4.0500558   -0.5771862    0.8136712
H    -5.0263804   -1.0082727    1.0024760
C    -3.9381552    0.6617804    0.2400876
H    -4.8252424    1.2338890   -0.0111295
C    -2.6768410    1.2433246    0.0057578
C    -1.4974121    0.5051527    0.2848253
C    -1.6508332   -0.7338728    0.9404026
H    -0.7713646   -1.2730967    1.2633753
C    -2.8898548   -1.2624035    1.1994307
H    -2.9683706   -2.2124563    1.7152676
C    -2.5773185    2.5963696   -0.4192930
H    -3.4870728    3.1412239   -0.6474055
C    -1.3741895    3.2147896   -0.4364030
H    -1.2997315    4.2742019   -0.6578144
C    -0.1719488    2.4994090   -0.1734588
C    -0.2043917    1.1018437    0.0192689
C     1.0513491    3.2042560   -0.0676222
H     1.0427344    4.2819499   -0.1896997
C     2.1942091    2.5487446    0.2579577
H     3.1168527    3.0912848    0.4334727
C     2.2216473    1.1336562    0.2934990
C     1.0486931    0.3945528    0.0302412
C     3.4483363    0.4614633    0.5573939
H     4.3095794    1.0606054    0.8334846
C     3.5427346   -0.8855926    0.4749463
H     4.4731467   -1.3939704    0.7038822
C     2.4490052   -1.6474447   -0.0196319
C     1.2150704   -1.0057258   -0.3013573
C     0.2531113   -1.7434440   -1.0216591
H    -0.6541356   -1.2535051   -1.3462847
C     0.4494193   -3.0628597   -1.3413779
H    -0.3083162   -3.5944309   -1.9054060
C     1.6251726   -3.7207967   -0.9552541
H     1.7670048   -4.7687404   -1.1927019
C     2.6109872   -3.0144177   -0.3183050
H     3.5525612   -3.4902813   -0.0646367
Bq         3.5314321771    -4.3900340703    -0.3207513632
Bq         3.5259289404    -4.3418375789    -0.3086347380
Bq         3.5204257037    -4.2936410876    -0.2965181128
Bq         3.5149224670    -4.2454445962    -0.2844014875
Bq         3.5094192303    -4.1972481049    -0.2722848623
Bq         3.5039159936    -4.1490516135    -0.2601682371
Bq         3.4984127570    -4.1008551222    -0.2480516119
Bq         3.4929095203    -4.0526586308    -0.2359349866
Bq         3.4874062836    -4.0044621394    -0.2238183614
Bq         3.4819030469    -3.9562656481    -0.2117017362
Bq         3.4763998102    -3.9080691567    -0.1995851109
Bq         3.4708965735    -3.8598726654    -0.1874684857
Bq         3.4653933368    -3.8116761740    -0.1753518605
Bq         3.4598901002    -3.7634796827    -0.1632352353
Bq         3.4543868635    -3.7152831913    -0.1511186100
Bq         3.4488836268    -3.6670866999    -0.1390019848
Bq         3.4433803901    -3.6188902086    -0.1268853596
Bq         3.4378771534    -3.5706937172    -0.1147687343
Bq         3.4323739167    -3.5224972259    -0.1026521091
Bq         3.4268706800    -3.4743007345    -0.0905354839
Bq         3.4213674434    -3.4261042432    -0.0784188587
Bq         3.4158642067    -3.3779077518    -0.0663022334
Bq         3.4103609700    -3.3297112605    -0.0541856082
Bq         3.4048577333    -3.2815147691    -0.0420689830
Bq         3.3993544966    -3.2333182777    -0.0299523577
Bq         3.3938512599    -3.1851217864    -0.0178357325
Bq         3.3883480232    -3.1369252950    -0.0057191073
Bq         3.3828447866    -3.0887288037     0.0063975179
Bq         3.3773415499    -3.0405323123     0.0185141432
Bq         3.3718383132    -2.9923358210     0.0306307684
Bq         3.3663350765    -2.9441393296     0.0427473936
Bq         3.3608318398    -2.8959428383     0.0548640189
Bq         3.3553286031    -2.8477463469     0.0669806441
Bq         3.3498253664    -2.7995498555     0.0790972693
Bq         3.3443221297    -2.7513533642     0.0912138945
Bq         3.3388188931    -2.7031568728     0.1033305198
Bq         3.3333156564    -2.6549603815     0.1154471450
Bq         3.3278124197    -2.6067638901     0.1275637702
Bq         3.3223091830    -2.5585673988     0.1396803955
Bq         3.3168059463    -2.5103709074     0.1517970207
Bq         3.3113027096    -2.4621744160     0.1639136459
Bq         3.3057994729    -2.4139779247     0.1760302712
Bq         3.3002962363    -2.3657814333     0.1881468964
Bq         3.2947929996    -2.3175849420     0.2002635216
Bq         3.2892897629    -2.2693884506     0.2123801468
Bq         3.2837865262    -2.2211919593     0.2244967721
Bq         3.2782832895    -2.1729954679     0.2366133973
Bq         3.2727800528    -2.1247989766     0.2487300225
Bq         3.2672768161    -2.0766024852     0.2608466478
Bq         3.2617735795    -2.0284059938     0.2729632730
Bq         3.2562703428    -1.9802095025     0.2850798982
Bq         3.2507671061    -1.9320130111     0.2971965234
Bq         3.2452638694    -1.8838165198     0.3093131487
Bq         3.2397606327    -1.8356200284     0.3214297739
Bq         3.2342573960    -1.7874235371     0.3335463991
Bq         3.2287541593    -1.7392270457     0.3456630244
Bq         3.2232509227    -1.6910305543     0.3577796496
Bq         3.2177476860    -1.6428340630     0.3698962748
Bq         3.2122444493    -1.5946375716     0.3820129000
Bq         3.2067412126    -1.5464410803     0.3941295253
Bq         3.2012379759    -1.4982445889     0.4062461505
Bq         3.1957347392    -1.4500480976     0.4183627757
Bq         3.1902315025    -1.4018516062     0.4304794010
Bq         3.1847282659    -1.3536551149     0.4425960262
Bq         3.1792250292    -1.3054586235     0.4547126514
Bq         3.1737217925    -1.2572621321     0.4668292766
Bq         3.1682185558    -1.2090656408     0.4789459019
Bq         3.1627153191    -1.1608691494     0.4910625271
Bq         3.1572120824    -1.1126726581     0.5031791523
Bq         3.1517088457    -1.0644761667     0.5152957776
Bq         3.1462056091    -1.0162796754     0.5274124028
Bq         3.1407023724    -0.9680831840     0.5395290280
Bq         3.1351991357    -0.9198866927     0.5516456533
Bq         3.1296958990    -0.8716902013     0.5637622785
Bq         3.1241926623    -0.8234937099     0.5758789037
Bq         3.1186894256    -0.7752972186     0.5879955289
Bq         3.1131861889    -0.7271007272     0.6001121542
Bq         3.1076829522    -0.6789042359     0.6122287794
Bq         3.1021797156    -0.6307077445     0.6243454046
Bq         3.0966764789    -0.5825112532     0.6364620299
Bq         3.0911732422    -0.5343147618     0.6485786551
Bq         3.0856700055    -0.4861182704     0.6606952803
Bq         3.0801667688    -0.4379217791     0.6728119055
Bq         3.0746635321    -0.3897252877     0.6849285308
Bq         3.0691602954    -0.3415287964     0.6970451560
Bq         3.0636570588    -0.2933323050     0.7091617812
Bq         3.0581538221    -0.2451358137     0.7212784065
Bq         3.0526505854    -0.1969393223     0.7333950317
Bq         3.0471473487    -0.1487428310     0.7455116569
Bq         3.0416441120    -0.1005463396     0.7576282821
Bq         3.0361408753    -0.0523498482     0.7697449074
Bq         3.0306376386    -0.0041533569     0.7818615326
Bq         3.0251344020     0.0440431345     0.7939781578
Bq         3.6209825072    -4.7756060011    -0.3970076713
Bq         3.6154792705    -4.7274095098    -0.3848910460
Bq         3.6099760338    -4.6792130184    -0.3727744208
Bq         3.6044727972    -4.6310165271    -0.3606577956
Bq         3.5989695605    -4.5828200357    -0.3485411703
Bq         3.5934663238    -4.5346235444    -0.3364245451
Bq         3.5879630871    -4.4864270530    -0.3243079199
Bq         3.5824598504    -4.4382305616    -0.3121912947
Bq         3.5769566137    -4.3900340703    -0.3000746694
Bq         3.5714533770    -4.3418375789    -0.2879580442
Bq         3.5659501404    -4.2936410876    -0.2758414190
Bq         3.5604469037    -4.2454445962    -0.2637247937
Bq         3.5549436670    -4.1972481049    -0.2516081685
Bq         3.5494404303    -4.1490516135    -0.2394915433
Bq         3.5439371936    -4.1008551222    -0.2273749180
Bq         3.5384339569    -4.0526586308    -0.2152582928
Bq         3.5329307202    -4.0044621394    -0.2031416676
Bq         3.5274274836    -3.9562656481    -0.1910250424
Bq         3.5219242469    -3.9080691567    -0.1789084171
Bq         3.5164210102    -3.8598726654    -0.1667917919
Bq         3.5109177735    -3.8116761740    -0.1546751667
Bq         3.5054145368    -3.7634796827    -0.1425585414
Bq         3.4999113001    -3.7152831913    -0.1304419162
Bq         3.4944080634    -3.6670866999    -0.1183252910
Bq         3.4889048268    -3.6188902086    -0.1062086658
Bq         3.4834015901    -3.5706937172    -0.0940920405
Bq         3.4778983534    -3.5224972259    -0.0819754153
Bq         3.4723951167    -3.4743007345    -0.0698587901
Bq         3.4668918800    -3.4261042432    -0.0577421648
Bq         3.4613886433    -3.3779077518    -0.0456255396
Bq         3.4558854066    -3.3297112605    -0.0335089144
Bq         3.4503821700    -3.2815147691    -0.0213922892
Bq         3.4448789333    -3.2333182777    -0.0092756639
Bq         3.4393756966    -3.1851217864     0.0028409613
Bq         3.4338724599    -3.1369252950     0.0149575865
Bq         3.4283692232    -3.0887288037     0.0270742118
Bq         3.4228659865    -3.0405323123     0.0391908370
Bq         3.4173627498    -2.9923358210     0.0513074622
Bq         3.4118595131    -2.9441393296     0.0634240874
Bq         3.4063562765    -2.8959428383     0.0755407127
Bq         3.4008530398    -2.8477463469     0.0876573379
Bq         3.3953498031    -2.7995498555     0.0997739631
Bq         3.3898465664    -2.7513533642     0.1118905884
Bq         3.3843433297    -2.7031568728     0.1240072136
Bq         3.3788400930    -2.6549603815     0.1361238388
Bq         3.3733368563    -2.6067638901     0.1482404641
Bq         3.3678336197    -2.5585673988     0.1603570893
Bq         3.3623303830    -2.5103709074     0.1724737145
Bq         3.3568271463    -2.4621744160     0.1845903397
Bq         3.3513239096    -2.4139779247     0.1967069650
Bq         3.3458206729    -2.3657814333     0.2088235902
Bq         3.3403174362    -2.3175849420     0.2209402154
Bq         3.3348141995    -2.2693884506     0.2330568407
Bq         3.3293109629    -2.2211919593     0.2451734659
Bq         3.3238077262    -2.1729954679     0.2572900911
Bq         3.3183044895    -2.1247989766     0.2694067163
Bq         3.3128012528    -2.0766024852     0.2815233416
Bq         3.3072980161    -2.0284059938     0.2936399668
Bq         3.3017947794    -1.9802095025     0.3057565920
Bq         3.2962915427    -1.9320130111     0.3178732173
Bq         3.2907883061    -1.8838165198     0.3299898425
Bq         3.2852850694    -1.8356200284     0.3421064677
Bq         3.2797818327    -1.7874235371     0.3542230929
Bq         3.2742785960    -1.7392270457     0.3663397182
Bq         3.2687753593    -1.6910305543     0.3784563434
Bq         3.2632721226    -1.6428340630     0.3905729686
Bq         3.2577688859    -1.5946375716     0.4026895939
Bq         3.2522656493    -1.5464410803     0.4148062191
Bq         3.2467624126    -1.4982445889     0.4269228443
Bq         3.2412591759    -1.4500480976     0.4390394695
Bq         3.2357559392    -1.4018516062     0.4511560948
Bq         3.2302527025    -1.3536551149     0.4632727200
Bq         3.2247494658    -1.3054586235     0.4753893452
Bq         3.2192462291    -1.2572621321     0.4875059705
Bq         3.2137429925    -1.2090656408     0.4996225957
Bq         3.2082397558    -1.1608691494     0.5117392209
Bq         3.2027365191    -1.1126726581     0.5238558461
Bq         3.1972332824    -1.0644761667     0.5359724714
Bq         3.1917300457    -1.0162796754     0.5480890966
Bq         3.1862268090    -0.9680831840     0.5602057218
Bq         3.1807235723    -0.9198866927     0.5723223471
Bq         3.1752203356    -0.8716902013     0.5844389723
Bq         3.1697170990    -0.8234937099     0.5965555975
Bq         3.1642138623    -0.7752972186     0.6086722228
Bq         3.1587106256    -0.7271007272     0.6207888480
Bq         3.1532073889    -0.6789042359     0.6329054732
Bq         3.1477041522    -0.6307077445     0.6450220984
Bq         3.1422009155    -0.5825112532     0.6571387237
Bq         3.1366976788    -0.5343147618     0.6692553489
Bq         3.1311944422    -0.4861182704     0.6813719741
Bq         3.1256912055    -0.4379217791     0.6934885994
Bq         3.1201879688    -0.3897252877     0.7056052246
Bq         3.1146847321    -0.3415287964     0.7177218498
Bq         3.1091814954    -0.2933323050     0.7298384750
Bq         3.1036782587    -0.2451358137     0.7419551003
Bq         3.0981750220    -0.1969393223     0.7540717255
Bq         3.0926717854    -0.1487428310     0.7661883507
Bq         3.0871685487    -0.1005463396     0.7783049760
Bq         3.0816653120    -0.0523498482     0.7904216012
Bq         3.0761620753    -0.0041533569     0.8025382264
Bq         3.0706588386     0.0440431345     0.8146548516
Bq         3.6665069439    -4.7756060011    -0.3763309774
Bq         3.6610037072    -4.7274095098    -0.3642143522
Bq         3.6555004705    -4.6792130184    -0.3520977270
Bq         3.6499972338    -4.6310165271    -0.3399811018
Bq         3.6444939971    -4.5828200357    -0.3278644765
Bq         3.6389907604    -4.5346235444    -0.3157478513

1
2
3
4
5
6
7
8
9
10
11
12
13
14
15
16
17
18
19
20
21
22
23
24
25
26
27
28
29
30
31
32
33
34
35
36
37
38
39
40
41
42
43
44
45
46
47
48
49
50
51
52
53
54
55
56
57
58
59
60
61
62
63
64
65
66
67
68
69
70
71
72
73
74
75
76
77
78
79
80
81
82
83
84
85
86
87
88
89
90
91
92
93
94
95
96
97
98
99
100
101
102
103
104
105
106
107
108
109
110
111
112
113
114
115
116
117
118
119
120
121
122
123
124
125
126
127
128
129
130
131
132
133
134
135
136
137
138
139
140
141
142
143
144
145
146
147
148
149
150
151
152
153
154
155
156
157
158
159
160
161
162
163
164
165
166
167
168
169
170
171
172
173
174
175
176
177
178
179
180
181
182
183
184
185
186
187
188
189
190
191
192
193
194
195
196
197
198
199
200
201
202
203
204
205
206
207
208
209
210
211
212
213
214
215
216
217
218
219
220
221
222
223
224
225
226
227
228
229
230
231
232
233
234
235
236

