%nproc=8
%mem=1000MB
# rb3lyp/6-311+g** NMR geom=connectivity

Title

0 1
C    -4.0500558   -0.5771862    0.8136712
H    -5.0263804   -1.0082727    1.0024760
C    -3.9381552    0.6617804    0.2400876
H    -4.8252424    1.2338890   -0.0111295
C    -2.6768410    1.2433246    0.0057578
C    -1.4974121    0.5051527    0.2848253
C    -1.6508332   -0.7338728    0.9404026
H    -0.7713646   -1.2730967    1.2633753
C    -2.8898548   -1.2624035    1.1994307
H    -2.9683706   -2.2124563    1.7152676
C    -2.5773185    2.5963696   -0.4192930
H    -3.4870728    3.1412239   -0.6474055
C    -1.3741895    3.2147896   -0.4364030
H    -1.2997315    4.2742019   -0.6578144
C    -0.1719488    2.4994090   -0.1734588
C    -0.2043917    1.1018437    0.0192689
C     1.0513491    3.2042560   -0.0676222
H     1.0427344    4.2819499   -0.1896997
C     2.1942091    2.5487446    0.2579577
H     3.1168527    3.0912848    0.4334727
C     2.2216473    1.1336562    0.2934990
C     1.0486931    0.3945528    0.0302412
C     3.4483363    0.4614633    0.5573939
H     4.3095794    1.0606054    0.8334846
C     3.5427346   -0.8855926    0.4749463
H     4.4731467   -1.3939704    0.7038822
C     2.4490052   -1.6474447   -0.0196319
C     1.2150704   -1.0057258   -0.3013573
C     0.2531113   -1.7434440   -1.0216591
H    -0.6541356   -1.2535051   -1.3462847
C     0.4494193   -3.0628597   -1.3413779
H    -0.3083162   -3.5944309   -1.9054060
C     1.6251726   -3.7207967   -0.9552541
H     1.7670048   -4.7687404   -1.1927019
C     2.6109872   -3.0144177   -0.3183050
H     3.5525612   -3.4902813   -0.0646367
Bq        -4.4311110181     1.4136214827    -0.1215084449
Bq        -4.4310255520     1.4586471791    -0.1432496354
Bq        -4.4309400858     1.5036728754    -0.1649908259
Bq        -4.4308546197     1.5486985717    -0.1867320164
Bq        -4.4307691536     1.5937242681    -0.2084732070
Bq        -4.4306836874     1.6387499644    -0.2302143975
Bq        -4.4305982213     1.6837756607    -0.2519555880
Bq        -4.4305127551     1.7288013571    -0.2736967785
Bq        -4.4304272890     1.7738270534    -0.2954379690
Bq        -4.4303418229     1.8188527497    -0.3171791595
Bq        -4.4302563567     1.8638784461    -0.3389203501
Bq        -4.4301708906     1.9089041424    -0.3606615406
Bq        -4.4300854245     1.9539298388    -0.3824027311
Bq        -4.4299999583     1.9989555351    -0.4041439216
Bq        -4.4299144922     2.0439812314    -0.4258851121
Bq        -4.4298290260     2.0890069278    -0.4476263026
Bq        -4.4297435599     2.1340326241    -0.4693674932
Bq        -4.4296580938     2.1790583204    -0.4911086837
Bq        -4.4295726276     2.2240840168    -0.5128498742
Bq        -4.3881196277    -2.2784856168     1.6614657294
Bq        -4.3880341616    -2.2334599204     1.6397245389
Bq        -4.3879486954    -2.1884342241     1.6179833484
Bq        -4.3878632293    -2.1434085278     1.5962421579
Bq        -4.3877777631    -2.0983828314     1.5745009673
Bq        -4.3876922970    -2.0533571351     1.5527597768
Bq        -4.3876068309    -2.0083314388     1.5310185863
Bq        -4.3875213647    -1.9633057424     1.5092773958
Bq        -4.3874358986    -1.9182800461     1.4875362053
Bq        -4.3873504325    -1.8732543497     1.4657950148
Bq        -4.3872649663    -1.8282286534     1.4440538242
Bq        -4.3871795002    -1.7832029571     1.4223126337
Bq        -4.3870940340    -1.7381772607     1.4005714432
Bq        -4.3870085679    -1.6931515644     1.3788302527
Bq        -4.3869231018    -1.6481258681     1.3570890622
Bq        -4.3868376356    -1.6031001717     1.3353478717
Bq        -4.3867521695    -1.5580744754     1.3136066811
Bq        -4.3866667034    -1.5130487791     1.2918654906
Bq        -4.3865812372    -1.4680230827     1.2701243001
Bq        -4.3864957711    -1.4229973864     1.2483831096
Bq        -4.3864103049    -1.3779716901     1.2266419191
Bq        -4.3863248388    -1.3329459937     1.2049007286
Bq        -4.3862393727    -1.2879202974     1.1831595380
Bq        -4.3861539065    -1.2428946011     1.1614183475
Bq        -4.3860684404    -1.1978689047     1.1396771570
Bq        -4.3859829743    -1.1528432084     1.1179359665
Bq        -4.3858975081    -1.1078175120     1.0961947760
Bq        -4.3858120420    -1.0627918157     1.0744535855
Bq        -4.3857265759    -1.0177661194     1.0527123949
Bq        -4.3856411097    -0.9727404230     1.0309712044
Bq        -4.3855556436    -0.9277147267     1.0092300139
Bq        -4.3854701774    -0.8826890304     0.9874888234
Bq        -4.3853847113    -0.8376633340     0.9657476329
Bq        -4.3852992452    -0.7926376377     0.9440064424
Bq        -4.3852137790    -0.7476119414     0.9222652519
Bq        -4.3851283129    -0.7025862450     0.9005240613
Bq        -4.3850428468    -0.6575605487     0.8787828708
Bq        -4.3849573806    -0.6125348524     0.8570416803
Bq        -4.3848719145    -0.5675091560     0.8353004898
Bq        -4.3847864483    -0.5224834597     0.8135592993
Bq        -4.3847009822    -0.4774577634     0.7918181088
Bq        -4.3846155161    -0.4324320670     0.7700769182
Bq        -4.3845300499    -0.3874063707     0.7483357277
Bq        -4.3844445838    -0.3423806743     0.7265945372
Bq        -4.3843591177    -0.2973549780     0.7048533467
Bq        -4.3842736515    -0.2523292817     0.6831121562
Bq        -4.3841881854    -0.2073035853     0.6613709657
Bq        -4.3841027192    -0.1622778890     0.6396297751
Bq        -4.3840172531    -0.1172521927     0.6178885846
Bq        -4.3839317870    -0.0722264963     0.5961473941
Bq        -4.3838463208    -0.0272008000     0.5744062036
Bq        -4.3837608547     0.0178248963     0.5526650131
Bq        -4.3836753886     0.0628505927     0.5309238226
Bq        -4.3835899224     0.1078762890     0.5091826320
Bq        -4.3835044563     0.1529019853     0.4874414415
Bq        -4.3834189901     0.1979276817     0.4657002510
Bq        -4.3833335240     0.2429533780     0.4439590605
Bq        -4.3832480579     0.2879790743     0.4222178700
Bq        -4.3831625917     0.3330047707     0.4004766795
Bq        -4.3830771256     0.3780304670     0.3787354889
Bq        -4.3829916595     0.4230561634     0.3569942984
Bq        -4.3829061933     0.4680818597     0.3352531079
Bq        -4.3828207272     0.5131075560     0.3135119174
Bq        -4.3827352610     0.5581332524     0.2917707269
Bq        -4.3826497949     0.6031589487     0.2700295364
Bq        -4.3825643288     0.6481846450     0.2482883458
Bq        -4.3824788626     0.6932103414     0.2265471553
Bq        -4.3823933965     0.7382360377     0.2048059648
Bq        -4.3823079304     0.7832617340     0.1830647743
Bq        -4.3822224642     0.8282874304     0.1613235838
Bq        -4.3821369981     0.8733131267     0.1395823933
Bq        -4.3820515319     0.9183388230     0.1178412028
Bq        -4.3819660658     0.9633645194     0.0961000122
Bq        -4.3818805997     1.0083902157     0.0743588217
Bq        -4.3817951335     1.0534159120     0.0526176312
Bq        -4.3817096674     1.0984416084     0.0308764407
Bq        -4.3816242013     1.1434673047     0.0091352502
Bq        -4.3815387351     1.1884930011    -0.0126059403
Bq        -4.3814532690     1.2335186974    -0.0343471309
Bq        -4.3813678028     1.2785443937    -0.0560883214
Bq        -4.3812823367     1.3235700901    -0.0778295119
Bq        -4.3811968706     1.3685957864    -0.0995707024
Bq        -4.3811114044     1.4136214827    -0.1213118929
Bq        -4.3810259383     1.4586471791    -0.1430530834
Bq        -4.3809404722     1.5036728754    -0.1647942740
Bq        -4.3808550060     1.5486985717    -0.1865354645
Bq        -4.3807695399     1.5937242681    -0.2082766550
Bq        -4.3806840737     1.6387499644    -0.2300178455
Bq        -4.3805986076     1.6837756607    -0.2517590360
Bq        -4.3805131415     1.7288013571    -0.2735002265
Bq        -4.3804276753     1.7738270534    -0.2952414171
Bq        -4.3803422092     1.8188527497    -0.3169826076
Bq        -4.3802567431     1.8638784461    -0.3387237981
Bq        -4.3801712769     1.9089041424    -0.3604649886
Bq        -4.3800858108     1.9539298388    -0.3822061791
Bq        -4.3800003446     1.9989555351    -0.4039473696
Bq        -4.3799148785     2.0439812314    -0.4256885602
Bq        -4.3798294124     2.0890069278    -0.4474297507
Bq        -4.3797439462     2.1340326241    -0.4691709412
Bq        -4.3796584801     2.1790583204    -0.4909121317
Bq        -4.3795730140     2.2240840168    -0.5126533222
Bq        -4.3381200140    -2.2784856168     1.6616622814
Bq        -4.3380345479    -2.2334599204     1.6399210909
Bq        -4.3379490818    -2.1884342241     1.6181799003
Bq        -4.3378636156    -2.1434085278     1.5964387098
Bq        -4.3377781495    -2.0983828314     1.5746975193
Bq        -4.3376926833    -2.0533571351     1.5529563288
Bq        -4.3376072172    -2.0083314388     1.5312151383
Bq        -4.3375217511    -1.9633057424     1.5094739478
Bq        -4.3374362849    -1.9182800461     1.4877327572
Bq        -4.3373508188    -1.8732543497     1.4659915667
Bq        -4.3372653527    -1.8282286534     1.4442503762
Bq        -4.3371798865    -1.7832029571     1.4225091857
Bq        -4.3370944204    -1.7381772607     1.4007679952
Bq        -4.3370089542    -1.6931515644     1.3790268047
Bq        -4.3369234881    -1.6481258681     1.3572856141
Bq        -4.3368380220    -1.6031001717     1.3355444236
Bq        -4.3367525558    -1.5580744754     1.3138032331
Bq        -4.3366670897    -1.5130487791     1.2920620426
Bq        -4.3365816236    -1.4680230827     1.2703208521
Bq        -4.3364961574    -1.4229973864     1.2485796616
Bq        -4.3364106913    -1.3779716901     1.2268384710
Bq        -4.3363252251    -1.3329459937     1.2050972805
Bq        -4.3362397590    -1.2879202974     1.1833560900
Bq        -4.3361542929    -1.2428946011     1.1616148995
Bq        -4.3360688267    -1.1978689047     1.1398737090
Bq        -4.3359833606    -1.1528432084     1.1181325185
Bq        -4.3358978945    -1.1078175120     1.0963913280
Bq        -4.3358124283    -1.0627918157     1.0746501374
Bq        -4.3357269622    -1.0177661194     1.0529089469
Bq        -4.3356414960    -0.9727404230     1.0311677564
Bq        -4.3355560299    -0.9277147267     1.0094265659
Bq        -4.3354705638    -0.8826890304     0.9876853754
Bq        -4.3353850976    -0.8376633340     0.9659441849
Bq        -4.3352996315    -0.7926376377     0.9442029943
Bq        -4.3352141654    -0.7476119414     0.9224618038
Bq        -4.3351286992    -0.7025862450     0.9007206133
Bq        -4.3350432331    -0.6575605487     0.8789794228
Bq        -4.3349577669    -0.6125348524     0.8572382323
Bq        -4.3348723008    -0.5675091560     0.8354970418
Bq        -4.3347868347    -0.5224834597     0.8137558512
Bq        -4.3347013685    -0.4774577634     0.7920146607
Bq        -4.3346159024    -0.4324320670     0.7702734702
Bq        -4.3345304363    -0.3874063707     0.7485322797
Bq        -4.3344449701    -0.3423806743     0.7267910892
Bq        -4.3343595040    -0.2973549780     0.7050498987
Bq        -4.3342740378    -0.2523292817     0.6833087081
Bq        -4.3341885717    -0.2073035853     0.6615675176
Bq        -4.3341031056    -0.1622778890     0.6398263271
Bq        -4.3340176394    -0.1172521927     0.6180851366
Bq        -4.3339321733    -0.0722264963     0.5963439461
Bq        -4.3338467072    -0.0272008000     0.5746027556
Bq        -4.3337612410     0.0178248963     0.5528615650
Bq        -4.3336757749     0.0628505927     0.5311203745
Bq        -4.3335903087     0.1078762890     0.5093791840
Bq        -4.3335048426     0.1529019853     0.4876379935
Bq        -4.3334193765     0.1979276817     0.4658968030
Bq        -4.3333339103     0.2429533780     0.4441556125
Bq        -4.3332484442     0.2879790743     0.4224144219
Bq        -4.3331629781     0.3330047707     0.4006732314
Bq        -4.3330775119     0.3780304670     0.3789320409
Bq        -4.3329920458     0.4230561634     0.3571908504
Bq        -4.3329065796     0.4680818597     0.3354496599
Bq        -4.3328211135     0.5131075560     0.3137084694
Bq        -4.3327356474     0.5581332524     0.2919672789
Bq        -4.3326501812     0.6031589487     0.2702260883
Bq        -4.3325647151     0.6481846450     0.2484848978
Bq        -4.3324792490     0.6932103414     0.2267437073
Bq        -4.3323937828     0.7382360377     0.2050025168
Bq        -4.3323083167     0.7832617340     0.1832613263
Bq        -4.3322228505     0.8282874304     0.1615201358
Bq        -4.3321373844     0.8733131267     0.1397789452
Bq        -4.3320519183     0.9183388230     0.1180377547
Bq        -4.3319664521     0.9633645194     0.0962965642
Bq        -4.3318809860     1.0083902157     0.0745553737
Bq        -4.3317955199     1.0534159120     0.0528141832
Bq        -4.3317100537     1.0984416084     0.0310729927
Bq        -4.3316245876     1.1434673047     0.0093318021
Bq        -4.3315391214     1.1884930011    -0.0124093884
Bq        -4.3314536553     1.2335186974    -0.0341505789
Bq        -4.3313681892     1.2785443937    -0.0558917694

1
2
3
4
5
6
7
8
9
10
11
12
13
14
15
16
17
18
19
20
21
22
23
24
25
26
27
28
29
30
31
32
33
34
35
36
37
38
39
40
41
42
43
44
45
46
47
48
49
50
51
52
53
54
55
56
57
58
59
60
61
62
63
64
65
66
67
68
69
70
71
72
73
74
75
76
77
78
79
80
81
82
83
84
85
86
87
88
89
90
91
92
93
94
95
96
97
98
99
100
101
102
103
104
105
106
107
108
109
110
111
112
113
114
115
116
117
118
119
120
121
122
123
124
125
126
127
128
129
130
131
132
133
134
135
136
137
138
139
140
141
142
143
144
145
146
147
148
149
150
151
152
153
154
155
156
157
158
159
160
161
162
163
164
165
166
167
168
169
170
171
172
173
174
175
176
177
178
179
180
181
182
183
184
185
186
187
188
189
190
191
192
193
194
195
196
197
198
199
200
201
202
203
204
205
206
207
208
209
210
211
212
213
214
215
216
217
218
219
220
221
222
223
224
225
226
227
228
229
230
231
232
233
234
235
236

