%nproc=8
%mem=1000MB
# rb3lyp/6-311+g** NMR geom=connectivity

Title

0 1
C    -4.0500558   -0.5771862    0.8136712
H    -5.0263804   -1.0082727    1.0024760
C    -3.9381552    0.6617804    0.2400876
H    -4.8252424    1.2338890   -0.0111295
C    -2.6768410    1.2433246    0.0057578
C    -1.4974121    0.5051527    0.2848253
C    -1.6508332   -0.7338728    0.9404026
H    -0.7713646   -1.2730967    1.2633753
C    -2.8898548   -1.2624035    1.1994307
H    -2.9683706   -2.2124563    1.7152676
C    -2.5773185    2.5963696   -0.4192930
H    -3.4870728    3.1412239   -0.6474055
C    -1.3741895    3.2147896   -0.4364030
H    -1.2997315    4.2742019   -0.6578144
C    -0.1719488    2.4994090   -0.1734588
C    -0.2043917    1.1018437    0.0192689
C     1.0513491    3.2042560   -0.0676222
H     1.0427344    4.2819499   -0.1896997
C     2.1942091    2.5487446    0.2579577
H     3.1168527    3.0912848    0.4334727
C     2.2216473    1.1336562    0.2934990
C     1.0486931    0.3945528    0.0302412
C     3.4483363    0.4614633    0.5573939
H     4.3095794    1.0606054    0.8334846
C     3.5427346   -0.8855926    0.4749463
H     4.4731467   -1.3939704    0.7038822
C     2.4490052   -1.6474447   -0.0196319
C     1.2150704   -1.0057258   -0.3013573
C     0.2531113   -1.7434440   -1.0216591
H    -0.6541356   -1.2535051   -1.3462847
C     0.4494193   -3.0628597   -1.3413779
H    -0.3083162   -3.5944309   -1.9054060
C     1.6251726   -3.7207967   -0.9552541
H     1.7670048   -4.7687404   -1.1927019
C     2.6109872   -3.0144177   -0.3183050
H     3.5525612   -3.4902813   -0.0646367
Bq        -0.3032282477     3.1121735166    -0.1988815906
Bq        -0.3028721807     3.1621131243    -0.2013123930
Bq        -0.3025161137     3.2120527319    -0.2037431954
Bq        -0.3021600468     3.2619923396    -0.2061739978
Bq        -0.3018039798     3.3119319473    -0.2086048002
Bq        -0.3014479128     3.3618715550    -0.2110356026
Bq        -0.3010918459     3.4118111627    -0.2134664049
Bq        -0.3007357789     3.4617507704    -0.2158972073
Bq        -0.3003797119     3.5116903781    -0.2183280097
Bq        -0.3000236450     3.5616299858    -0.2207588121
Bq        -0.2996675780     3.6115695935    -0.2231896145
Bq        -0.2993115110     3.6615092011    -0.2256204169
Bq        -0.2989554440     3.7114488088    -0.2280512192
Bq        -0.2985993771     3.7613884165    -0.2304820216
Bq        -0.2982433101     3.8113280242    -0.2329128240
Bq        -0.2978872431     3.8612676319    -0.2353436264
Bq        -0.2975311762     3.9112072396    -0.2377744288
Bq        -0.2971751092     3.9611468473    -0.2402052312
Bq        -0.2968190422     4.0110864550    -0.2426360335
Bq        -0.2964629752     4.0610260627    -0.2450668359
Bq        -0.2961069083     4.1109656703    -0.2474976383
Bq        -0.2957508413     4.1609052780    -0.2499284407
Bq        -0.2953947743     4.2108448857    -0.2523592431
Bq        -0.2950387074     4.2607844934    -0.2547900455
Bq        -0.2946826404     4.3107241011    -0.2572208478
Bq        -0.2808172755    -0.6832366678    -0.0068938801
Bq        -0.2804612086    -0.6332970601    -0.0093246824
Bq        -0.2801051416    -0.5833574524    -0.0117554848
Bq        -0.2797490746    -0.5334178447    -0.0141862872
Bq        -0.2793930077    -0.4834782370    -0.0166170896
Bq        -0.2790369407    -0.4335386293    -0.0190478920
Bq        -0.2786808737    -0.3835990216    -0.0214786944
Bq        -0.2783248067    -0.3336594139    -0.0239094967
Bq        -0.2779687398    -0.2837198063    -0.0263402991
Bq        -0.2776126728    -0.2337801986    -0.0287711015
Bq        -0.2772566058    -0.1838405909    -0.0312019039
Bq        -0.2769005389    -0.1339009832    -0.0336327063
Bq        -0.2765444719    -0.0839613755    -0.0360635087
Bq        -0.2761884049    -0.0340217678    -0.0384943110
Bq        -0.2758323379     0.0159178399    -0.0409251134
Bq        -0.2754762710     0.0658574476    -0.0433559158
Bq        -0.2751202040     0.1157970553    -0.0457867182
Bq        -0.2747641370     0.1657366629    -0.0482175206
Bq        -0.2744080701     0.2156762706    -0.0506483230
Bq        -0.2740520031     0.2656158783    -0.0530791253
Bq        -0.2736959361     0.3155554860    -0.0555099277
Bq        -0.2733398692     0.3654950937    -0.0579407301
Bq        -0.2729838022     0.4154347014    -0.0603715325
Bq        -0.2726277352     0.4653743091    -0.0628023349
Bq        -0.2722716682     0.5153139168    -0.0652331373
Bq        -0.2719156013     0.5652535245    -0.0676639396
Bq        -0.2715595343     0.6151931321    -0.0700947420
Bq        -0.2712034673     0.6651327398    -0.0725255444
Bq        -0.2708474004     0.7150723475    -0.0749563468
Bq        -0.2704913334     0.7650119552    -0.0773871492
Bq        -0.2701352664     0.8149515629    -0.0798179516
Bq        -0.2697791994     0.8648911706    -0.0822487539
Bq        -0.2694231325     0.9148307783    -0.0846795563
Bq        -0.2690670655     0.9647703860    -0.0871103587
Bq        -0.2687109985     1.0147099936    -0.0895411611
Bq        -0.2683549316     1.0646496013    -0.0919719635
Bq        -0.2679988646     1.1145892090    -0.0944027658
Bq        -0.2676427976     1.1645288167    -0.0968335682
Bq        -0.2672867306     1.2144684244    -0.0992643706
Bq        -0.2669306637     1.2644080321    -0.1016951730
Bq        -0.2665745967     1.3143476398    -0.1041259754
Bq        -0.2662185297     1.3642872475    -0.1065567778
Bq        -0.2658624628     1.4142268552    -0.1089875801
Bq        -0.2655063958     1.4641664628    -0.1114183825
Bq        -0.2651503288     1.5141060705    -0.1138491849
Bq        -0.2647942619     1.5640456782    -0.1162799873
Bq        -0.2644381949     1.6139852859    -0.1187107897
Bq        -0.2640821279     1.6639248936    -0.1211415921
Bq        -0.2637260609     1.7138645013    -0.1235723944
Bq        -0.2633699940     1.7638041090    -0.1260031968
Bq        -0.2630139270     1.8137437167    -0.1284339992
Bq        -0.2626578600     1.8636833244    -0.1308648016
Bq        -0.2623017931     1.9136229320    -0.1332956040
Bq        -0.2619457261     1.9635625397    -0.1357264064
Bq        -0.2615896591     2.0135021474    -0.1381572087
Bq        -0.2612335921     2.0634417551    -0.1405880111
Bq        -0.2608775252     2.1133813628    -0.1430188135
Bq        -0.2605214582     2.1633209705    -0.1454496159
Bq        -0.2601653912     2.2132605782    -0.1478804183
Bq        -0.2598093243     2.2632001859    -0.1503112207
Bq        -0.2594532573     2.3131397936    -0.1527420230
Bq        -0.2590971903     2.3630794012    -0.1551728254
Bq        -0.2587411233     2.4130190089    -0.1576036278
Bq        -0.2583850564     2.4629586166    -0.1600344302
Bq        -0.2580289894     2.5128982243    -0.1624652326
Bq        -0.2576729224     2.5628378320    -0.1648960350
Bq        -0.2573168555     2.6127774397    -0.1673268373
Bq        -0.2569607885     2.6627170474    -0.1697576397
Bq        -0.2566047215     2.7126566551    -0.1721884421
Bq        -0.2562486546     2.7625962627    -0.1746192445
Bq        -0.2558925876     2.8125358704    -0.1770500469
Bq        -0.2555365206     2.8624754781    -0.1794808493
Bq        -0.2551804536     2.9124150858    -0.1819116516
Bq        -0.2548243867     2.9623546935    -0.1843424540
Bq        -0.2544683197     3.0122943012    -0.1867732564
Bq        -0.2541122527     3.0622339089    -0.1892040588
Bq        -0.2537561858     3.1121735166    -0.1916348612
Bq        -0.2534001188     3.1621131243    -0.1940656636
Bq        -0.2530440518     3.2120527319    -0.1964964659
Bq        -0.2526879848     3.2619923396    -0.1989272683
Bq        -0.2523319179     3.3119319473    -0.2013580707
Bq        -0.2519758509     3.3618715550    -0.2037888731
Bq        -0.2516197839     3.4118111627    -0.2062196755
Bq        -0.2512637170     3.4617507704    -0.2086504779
Bq        -0.2509076500     3.5116903781    -0.2110812802
Bq        -0.2505515830     3.5616299858    -0.2135120826
Bq        -0.2501955160     3.6115695935    -0.2159428850
Bq        -0.2498394491     3.6615092011    -0.2183736874
Bq        -0.2494833821     3.7114488088    -0.2208044898
Bq        -0.2491273151     3.7613884165    -0.2232352922
Bq        -0.2487712482     3.8113280242    -0.2256660945
Bq        -0.2484151812     3.8612676319    -0.2280968969
Bq        -0.2480591142     3.9112072396    -0.2305276993
Bq        -0.2477030473     3.9611468473    -0.2329585017
Bq        -0.2473469803     4.0110864550    -0.2353893041
Bq        -0.2469909133     4.0610260627    -0.2378201065
Bq        -0.2466348463     4.1109656703    -0.2402509088
Bq        -0.2462787794     4.1609052780    -0.2426817112
Bq        -0.2459227124     4.2108448857    -0.2451125136
Bq        -0.2455666454     4.2607844934    -0.2475433160
Bq        -0.2452105785     4.3107241011    -0.2499741184
Bq        -0.2313452136    -0.6832366678     0.0003528494
Bq        -0.2309891466    -0.6332970601    -0.0020779530
Bq        -0.2306330797    -0.5833574524    -0.0045087554
Bq        -0.2302770127    -0.5334178447    -0.0069395577
Bq        -0.2299209457    -0.4834782370    -0.0093703601
Bq        -0.2295648787    -0.4335386293    -0.0118011625
Bq        -0.2292088118    -0.3835990216    -0.0142319649
Bq        -0.2288527448    -0.3336594139    -0.0166627673
Bq        -0.2284966778    -0.2837198063    -0.0190935697
Bq        -0.2281406109    -0.2337801986    -0.0215243720
Bq        -0.2277845439    -0.1838405909    -0.0239551744
Bq        -0.2274284769    -0.1339009832    -0.0263859768
Bq        -0.2270724100    -0.0839613755    -0.0288167792
Bq        -0.2267163430    -0.0340217678    -0.0312475816
Bq        -0.2263602760     0.0159178399    -0.0336783840
Bq        -0.2260042090     0.0658574476    -0.0361091863
Bq        -0.2256481421     0.1157970553    -0.0385399887
Bq        -0.2252920751     0.1657366629    -0.0409707911
Bq        -0.2249360081     0.2156762706    -0.0434015935
Bq        -0.2245799412     0.2656158783    -0.0458323959
Bq        -0.2242238742     0.3155554860    -0.0482631983
Bq        -0.2238678072     0.3654950937    -0.0506940006
Bq        -0.2235117402     0.4154347014    -0.0531248030
Bq        -0.2231556733     0.4653743091    -0.0555556054
Bq        -0.2227996063     0.5153139168    -0.0579864078
Bq        -0.2224435393     0.5652535245    -0.0604172102
Bq        -0.2220874724     0.6151931321    -0.0628480126
Bq        -0.2217314054     0.6651327398    -0.0652788149
Bq        -0.2213753384     0.7150723475    -0.0677096173
Bq        -0.2210192714     0.7650119552    -0.0701404197
Bq        -0.2206632045     0.8149515629    -0.0725712221
Bq        -0.2203071375     0.8648911706    -0.0750020245
Bq        -0.2199510705     0.9148307783    -0.0774328269
Bq        -0.2195950036     0.9647703860    -0.0798636292
Bq        -0.2192389366     1.0147099936    -0.0822944316
Bq        -0.2188828696     1.0646496013    -0.0847252340
Bq        -0.2185268027     1.1145892090    -0.0871560364
Bq        -0.2181707357     1.1645288167    -0.0895868388
Bq        -0.2178146687     1.2144684244    -0.0920176412
Bq        -0.2174586017     1.2644080321    -0.0944484435
Bq        -0.2171025348     1.3143476398    -0.0968792459
Bq        -0.2167464678     1.3642872475    -0.0993100483
Bq        -0.2163904008     1.4142268552    -0.1017408507
Bq        -0.2160343339     1.4641664628    -0.1041716531
Bq        -0.2156782669     1.5141060705    -0.1066024555
Bq        -0.2153221999     1.5640456782    -0.1090332578
Bq        -0.2149661329     1.6139852859    -0.1114640602
Bq        -0.2146100660     1.6639248936    -0.1138948626
Bq        -0.2142539990     1.7138645013    -0.1163256650
Bq        -0.2138979320     1.7638041090    -0.1187564674
Bq        -0.2135418651     1.8137437167    -0.1211872698
Bq        -0.2131857981     1.8636833244    -0.1236180721
Bq        -0.2128297311     1.9136229320    -0.1260488745
Bq        -0.2124736641     1.9635625397    -0.1284796769
Bq        -0.2121175972     2.0135021474    -0.1309104793
Bq        -0.2117615302     2.0634417551    -0.1333412817
Bq        -0.2114054632     2.1133813628    -0.1357720841
Bq        -0.2110493963     2.1633209705    -0.1382028864
Bq        -0.2106933293     2.2132605782    -0.1406336888
Bq        -0.2103372623     2.2632001859    -0.1430644912
Bq        -0.2099811954     2.3131397936    -0.1454952936
Bq        -0.2096251284     2.3630794012    -0.1479260960
Bq        -0.2092690614     2.4130190089    -0.1503568984
Bq        -0.2089129944     2.4629586166    -0.1527877007
Bq        -0.2085569275     2.5128982243    -0.1552185031
Bq        -0.2082008605     2.5628378320    -0.1576493055
Bq        -0.2078447935     2.6127774397    -0.1600801079
Bq        -0.2074887266     2.6627170474    -0.1625109103
Bq        -0.2071326596     2.7126566551    -0.1649417127
Bq        -0.2067765926     2.7625962627    -0.1673725150
Bq        -0.2064205256     2.8125358704    -0.1698033174
Bq        -0.2060644587     2.8624754781    -0.1722341198
Bq        -0.2057083917     2.9124150858    -0.1746649222
Bq        -0.2053523247     2.9623546935    -0.1770957246

1
2
3
4
5
6
7
8
9
10
11
12
13
14
15
16
17
18
19
20
21
22
23
24
25
26
27
28
29
30
31
32
33
34
35
36
37
38
39
40
41
42
43
44
45
46
47
48
49
50
51
52
53
54
55
56
57
58
59
60
61
62
63
64
65
66
67
68
69
70
71
72
73
74
75
76
77
78
79
80
81
82
83
84
85
86
87
88
89
90
91
92
93
94
95
96
97
98
99
100
101
102
103
104
105
106
107
108
109
110
111
112
113
114
115
116
117
118
119
120
121
122
123
124
125
126
127
128
129
130
131
132
133
134
135
136
137
138
139
140
141
142
143
144
145
146
147
148
149
150
151
152
153
154
155
156
157
158
159
160
161
162
163
164
165
166
167
168
169
170
171
172
173
174
175
176
177
178
179
180
181
182
183
184
185
186
187
188
189
190
191
192
193
194
195
196
197
198
199
200
201
202
203
204
205
206
207
208
209
210
211
212
213
214
215
216
217
218
219
220
221
222
223
224
225
226
227
228
229
230
231
232
233
234
235
236

