%nproc=8
%mem=1000MB
# rb3lyp/6-311+g** NMR geom=connectivity

Title

0 1
C    -4.0500558   -0.5771862    0.8136712
H    -5.0263804   -1.0082727    1.0024760
C    -3.9381552    0.6617804    0.2400876
H    -4.8252424    1.2338890   -0.0111295
C    -2.6768410    1.2433246    0.0057578
C    -1.4974121    0.5051527    0.2848253
C    -1.6508332   -0.7338728    0.9404026
H    -0.7713646   -1.2730967    1.2633753
C    -2.8898548   -1.2624035    1.1994307
H    -2.9683706   -2.2124563    1.7152676
C    -2.5773185    2.5963696   -0.4192930
H    -3.4870728    3.1412239   -0.6474055
C    -1.3741895    3.2147896   -0.4364030
H    -1.2997315    4.2742019   -0.6578144
C    -0.1719488    2.4994090   -0.1734588
C    -0.2043917    1.1018437    0.0192689
C     1.0513491    3.2042560   -0.0676222
H     1.0427344    4.2819499   -0.1896997
C     2.1942091    2.5487446    0.2579577
H     3.1168527    3.0912848    0.4334727
C     2.2216473    1.1336562    0.2934990
C     1.0486931    0.3945528    0.0302412
C     3.4483363    0.4614633    0.5573939
H     4.3095794    1.0606054    0.8334846
C     3.5427346   -0.8855926    0.4749463
H     4.4731467   -1.3939704    0.7038822
C     2.4490052   -1.6474447   -0.0196319
C     1.2150704   -1.0057258   -0.3013573
C     0.2531113   -1.7434440   -1.0216591
H    -0.6541356   -1.2535051   -1.3462847
C     0.4494193   -3.0628597   -1.3413779
H    -0.3083162   -3.5944309   -1.9054060
C     1.6251726   -3.7207967   -0.9552541
H     1.7670048   -4.7687404   -1.1927019
C     2.6109872   -3.0144177   -0.3183050
H     3.5525612   -3.4902813   -0.0646367
Bq         2.9191000970    -3.8116761740    -0.4234721863
Bq         2.9135968603    -3.7634796827    -0.4113555610
Bq         2.9080936236    -3.7152831913    -0.3992389358
Bq         2.9025903869    -3.6670866999    -0.3871223106
Bq         2.8970871502    -3.6188902086    -0.3750056853
Bq         2.8915839135    -3.5706937172    -0.3628890601
Bq         2.8860806768    -3.5224972259    -0.3507724349
Bq         2.8805774402    -3.4743007345    -0.3386558097
Bq         2.8750742035    -3.4261042432    -0.3265391844
Bq         2.8695709668    -3.3779077518    -0.3144225592
Bq         2.8640677301    -3.3297112605    -0.3023059340
Bq         2.8585644934    -3.2815147691    -0.2901893087
Bq         2.8530612567    -3.2333182777    -0.2780726835
Bq         2.8475580200    -3.1851217864    -0.2659560583
Bq         2.8420547834    -3.1369252950    -0.2538394331
Bq         2.8365515467    -3.0887288037    -0.2417228078
Bq         2.8310483100    -3.0405323123    -0.2296061826
Bq         2.8255450733    -2.9923358210    -0.2174895574
Bq         2.8200418366    -2.9441393296    -0.2053729321
Bq         2.8145385999    -2.8959428383    -0.1932563069
Bq         2.8090353632    -2.8477463469    -0.1811396817
Bq         2.8035321266    -2.7995498555    -0.1690230564
Bq         2.7980288899    -2.7513533642    -0.1569064312
Bq         2.7925256532    -2.7031568728    -0.1447898060
Bq         2.7870224165    -2.6549603815    -0.1326731808
Bq         2.7815191798    -2.6067638901    -0.1205565555
Bq         2.7760159431    -2.5585673988    -0.1084399303
Bq         2.7705127064    -2.5103709074    -0.0963233051
Bq         2.7650094698    -2.4621744160    -0.0842066798
Bq         2.7595062331    -2.4139779247    -0.0720900546
Bq         2.7540029964    -2.3657814333    -0.0599734294
Bq         2.7484997597    -2.3175849420    -0.0478568042
Bq         2.7429965230    -2.2693884506    -0.0357401789
Bq         2.7374932863    -2.2211919593    -0.0236235537
Bq         2.7319900496    -2.1729954679    -0.0115069285
Bq         2.7264868129    -2.1247989766     0.0006096968
Bq         2.7209835763    -2.0766024852     0.0127263220
Bq         2.7154803396    -2.0284059938     0.0248429472
Bq         2.7099771029    -1.9802095025     0.0369595724
Bq         2.7044738662    -1.9320130111     0.0490761977
Bq         2.6989706295    -1.8838165198     0.0611928229
Bq         2.6934673928    -1.8356200284     0.0733094481
Bq         2.6879641561    -1.7874235371     0.0854260734
Bq         2.6824609195    -1.7392270457     0.0975426986
Bq         2.6769576828    -1.6910305543     0.1096593238
Bq         2.6714544461    -1.6428340630     0.1217759490
Bq         2.6659512094    -1.5946375716     0.1338925743
Bq         2.6604479727    -1.5464410803     0.1460091995
Bq         2.6549447360    -1.4982445889     0.1581258247
Bq         2.6494414993    -1.4500480976     0.1702424500
Bq         2.6439382627    -1.4018516062     0.1823590752
Bq         2.6384350260    -1.3536551149     0.1944757004
Bq         2.6329317893    -1.3054586235     0.2065923256
Bq         2.6274285526    -1.2572621321     0.2187089509
Bq         2.6219253159    -1.2090656408     0.2308255761
Bq         2.6164220792    -1.1608691494     0.2429422013
Bq         2.6109188425    -1.1126726581     0.2550588266
Bq         2.6054156059    -1.0644761667     0.2671754518
Bq         2.5999123692    -1.0162796754     0.2792920770
Bq         2.5944091325    -0.9680831840     0.2914087023
Bq         2.5889058958    -0.9198866927     0.3035253275
Bq         2.5834026591    -0.8716902013     0.3156419527
Bq         2.5778994224    -0.8234937099     0.3277585779
Bq         2.5723961857    -0.7752972186     0.3398752032
Bq         2.5668929491    -0.7271007272     0.3519918284
Bq         2.5613897124    -0.6789042359     0.3641084536
Bq         2.5558864757    -0.6307077445     0.3762250789
Bq         2.5503832390    -0.5825112532     0.3883417041
Bq         2.5448800023    -0.5343147618     0.4004583293
Bq         2.5393767656    -0.4861182704     0.4125749545
Bq         2.5338735289    -0.4379217791     0.4246915798
Bq         2.5283702923    -0.3897252877     0.4368082050
Bq         2.5228670556    -0.3415287964     0.4489248302
Bq         2.5173638189    -0.2933323050     0.4610414555
Bq         2.5118605822    -0.2451358137     0.4731580807
Bq         2.5063573455    -0.1969393223     0.4852747059
Bq         2.5008541088    -0.1487428310     0.4973913311
Bq         2.4953508721    -0.1005463396     0.5095079564
Bq         2.4898476354    -0.0523498482     0.5216245816
Bq         2.4843443988    -0.0041533569     0.5337412068
Bq         2.4788411621     0.0440431345     0.5458578321
Bq         3.0746892673    -4.7756060011    -0.6451279970
Bq         3.0691860307    -4.7274095098    -0.6330113718
Bq         3.0636827940    -4.6792130184    -0.6208947466
Bq         3.0581795573    -4.6310165271    -0.6087781213
Bq         3.0526763206    -4.5828200357    -0.5966614961
Bq         3.0471730839    -4.5346235444    -0.5845448709
Bq         3.0416698472    -4.4864270530    -0.5724282457
Bq         3.0361666105    -4.4382305616    -0.5603116204
Bq         3.0306633739    -4.3900340703    -0.5481949952
Bq         3.0251601372    -4.3418375789    -0.5360783700
Bq         3.0196569005    -4.2936410876    -0.5239617447
Bq         3.0141536638    -4.2454445962    -0.5118451195
Bq         3.0086504271    -4.1972481049    -0.4997284943
Bq         3.0031471904    -4.1490516135    -0.4876118690
Bq         2.9976439537    -4.1008551222    -0.4754952438
Bq         2.9921407170    -4.0526586308    -0.4633786186
Bq         2.9866374804    -4.0044621394    -0.4512619934
Bq         2.9811342437    -3.9562656481    -0.4391453681
Bq         2.9756310070    -3.9080691567    -0.4270287429
Bq         2.9701277703    -3.8598726654    -0.4149121177
Bq         2.9646245336    -3.8116761740    -0.4027954924
Bq         2.9591212969    -3.7634796827    -0.3906788672
Bq         2.9536180602    -3.7152831913    -0.3785622420
Bq         2.9481148236    -3.6670866999    -0.3664456168
Bq         2.9426115869    -3.6188902086    -0.3543289915
Bq         2.9371083502    -3.5706937172    -0.3422123663
Bq         2.9316051135    -3.5224972259    -0.3300957411
Bq         2.9261018768    -3.4743007345    -0.3179791158
Bq         2.9205986401    -3.4261042432    -0.3058624906
Bq         2.9150954034    -3.3779077518    -0.2937458654
Bq         2.9095921668    -3.3297112605    -0.2816292402
Bq         2.9040889301    -3.2815147691    -0.2695126149
Bq         2.8985856934    -3.2333182777    -0.2573959897
Bq         2.8930824567    -3.1851217864    -0.2452793645
Bq         2.8875792200    -3.1369252950    -0.2331627392
Bq         2.8820759833    -3.0887288037    -0.2210461140
Bq         2.8765727466    -3.0405323123    -0.2089294888
Bq         2.8710695100    -2.9923358210    -0.1968128636
Bq         2.8655662733    -2.9441393296    -0.1846962383
Bq         2.8600630366    -2.8959428383    -0.1725796131
Bq         2.8545597999    -2.8477463469    -0.1604629879
Bq         2.8490565632    -2.7995498555    -0.1483463626
Bq         2.8435533265    -2.7513533642    -0.1362297374
Bq         2.8380500898    -2.7031568728    -0.1241131122
Bq         2.8325468532    -2.6549603815    -0.1119964869
Bq         2.8270436165    -2.6067638901    -0.0998798617
Bq         2.8215403798    -2.5585673988    -0.0877632365
Bq         2.8160371431    -2.5103709074    -0.0756466113
Bq         2.8105339064    -2.4621744160    -0.0635299860
Bq         2.8050306697    -2.4139779247    -0.0514133608
Bq         2.7995274330    -2.3657814333    -0.0392967356
Bq         2.7940241963    -2.3175849420    -0.0271801103
Bq         2.7885209597    -2.2693884506    -0.0150634851
Bq         2.7830177230    -2.2211919593    -0.0029468599
Bq         2.7775144863    -2.1729954679     0.0091697653
Bq         2.7720112496    -2.1247989766     0.0212863906
Bq         2.7665080129    -2.0766024852     0.0334030158
Bq         2.7610047762    -2.0284059938     0.0455196410
Bq         2.7555015395    -1.9802095025     0.0576362663
Bq         2.7499983029    -1.9320130111     0.0697528915
Bq         2.7444950662    -1.8838165198     0.0818695167
Bq         2.7389918295    -1.8356200284     0.0939861419
Bq         2.7334885928    -1.7874235371     0.1061027672
Bq         2.7279853561    -1.7392270457     0.1182193924
Bq         2.7224821194    -1.6910305543     0.1303360176
Bq         2.7169788827    -1.6428340630     0.1424526429
Bq         2.7114756461    -1.5946375716     0.1545692681
Bq         2.7059724094    -1.5464410803     0.1666858933
Bq         2.7004691727    -1.4982445889     0.1788025185
Bq         2.6949659360    -1.4500480976     0.1909191438
Bq         2.6894626993    -1.4018516062     0.2030357690
Bq         2.6839594626    -1.3536551149     0.2151523942
Bq         2.6784562259    -1.3054586235     0.2272690195
Bq         2.6729529893    -1.2572621321     0.2393856447
Bq         2.6674497526    -1.2090656408     0.2515022699
Bq         2.6619465159    -1.1608691494     0.2636188952
Bq         2.6564432792    -1.1126726581     0.2757355204
Bq         2.6509400425    -1.0644761667     0.2878521456
Bq         2.6454368058    -1.0162796754     0.2999687708
Bq         2.6399335691    -0.9680831840     0.3120853961
Bq         2.6344303325    -0.9198866927     0.3242020213
Bq         2.6289270958    -0.8716902013     0.3363186465
Bq         2.6234238591    -0.8234937099     0.3484352718
Bq         2.6179206224    -0.7752972186     0.3605518970
Bq         2.6124173857    -0.7271007272     0.3726685222
Bq         2.6069141490    -0.6789042359     0.3847851474
Bq         2.6014109123    -0.6307077445     0.3969017727
Bq         2.5959076757    -0.5825112532     0.4090183979
Bq         2.5904044390    -0.5343147618     0.4211350231
Bq         2.5849012023    -0.4861182704     0.4332516484
Bq         2.5793979656    -0.4379217791     0.4453682736
Bq         2.5738947289    -0.3897252877     0.4574848988
Bq         2.5683914922    -0.3415287964     0.4696015240
Bq         2.5628882555    -0.2933323050     0.4817181493
Bq         2.5573850188    -0.2451358137     0.4938347745
Bq         2.5518817822    -0.1969393223     0.5059513997
Bq         2.5463785455    -0.1487428310     0.5180680250
Bq         2.5408753088    -0.1005463396     0.5301846502
Bq         2.5353720721    -0.0523498482     0.5423012754
Bq         2.5298688354    -0.0041533569     0.5544179006
Bq         2.5243655987     0.0440431345     0.5665345259
Bq         3.1202137040    -4.7756060011    -0.6244513032
Bq         3.1147104673    -4.7274095098    -0.6123346780
Bq         3.1092072306    -4.6792130184    -0.6002180528
Bq         3.1037039939    -4.6310165271    -0.5881014275
Bq         3.0982007573    -4.5828200357    -0.5759848023
Bq         3.0926975206    -4.5346235444    -0.5638681771
Bq         3.0871942839    -4.4864270530    -0.5517515518
Bq         3.0816910472    -4.4382305616    -0.5396349266
Bq         3.0761878105    -4.3900340703    -0.5275183014
Bq         3.0706845738    -4.3418375789    -0.5154016761
Bq         3.0651813371    -4.2936410876    -0.5032850509
Bq         3.0596781004    -4.2454445962    -0.4911684257
Bq         3.0541748638    -4.1972481049    -0.4790518005
Bq         3.0486716271    -4.1490516135    -0.4669351752
Bq         3.0431683904    -4.1008551222    -0.4548185500
Bq         3.0376651537    -4.0526586308    -0.4427019248
Bq         3.0321619170    -4.0044621394    -0.4305852995
Bq         3.0266586803    -3.9562656481    -0.4184686743

1
2
3
4
5
6
7
8
9
10
11
12
13
14
15
16
17
18
19
20
21
22
23
24
25
26
27
28
29
30
31
32
33
34
35
36
37
38
39
40
41
42
43
44
45
46
47
48
49
50
51
52
53
54
55
56
57
58
59
60
61
62
63
64
65
66
67
68
69
70
71
72
73
74
75
76
77
78
79
80
81
82
83
84
85
86
87
88
89
90
91
92
93
94
95
96
97
98
99
100
101
102
103
104
105
106
107
108
109
110
111
112
113
114
115
116
117
118
119
120
121
122
123
124
125
126
127
128
129
130
131
132
133
134
135
136
137
138
139
140
141
142
143
144
145
146
147
148
149
150
151
152
153
154
155
156
157
158
159
160
161
162
163
164
165
166
167
168
169
170
171
172
173
174
175
176
177
178
179
180
181
182
183
184
185
186
187
188
189
190
191
192
193
194
195
196
197
198
199
200
201
202
203
204
205
206
207
208
209
210
211
212
213
214
215
216
217
218
219
220
221
222
223
224
225
226
227
228
229
230
231
232
233
234
235
236

