%nproc=8
%mem=1000MB
# rb3lyp/6-311+g** NMR geom=connectivity

Title

0 1
C    -4.0500558   -0.5771862    0.8136712
H    -5.0263804   -1.0082727    1.0024760
C    -3.9381552    0.6617804    0.2400876
H    -4.8252424    1.2338890   -0.0111295
C    -2.6768410    1.2433246    0.0057578
C    -1.4974121    0.5051527    0.2848253
C    -1.6508332   -0.7338728    0.9404026
H    -0.7713646   -1.2730967    1.2633753
C    -2.8898548   -1.2624035    1.1994307
H    -2.9683706   -2.2124563    1.7152676
C    -2.5773185    2.5963696   -0.4192930
H    -3.4870728    3.1412239   -0.6474055
C    -1.3741895    3.2147896   -0.4364030
H    -1.2997315    4.2742019   -0.6578144
C    -0.1719488    2.4994090   -0.1734588
C    -0.2043917    1.1018437    0.0192689
C     1.0513491    3.2042560   -0.0676222
H     1.0427344    4.2819499   -0.1896997
C     2.1942091    2.5487446    0.2579577
H     3.1168527    3.0912848    0.4334727
C     2.2216473    1.1336562    0.2934990
C     1.0486931    0.3945528    0.0302412
C     3.4483363    0.4614633    0.5573939
H     4.3095794    1.0606054    0.8334846
C     3.5427346   -0.8855926    0.4749463
H     4.4731467   -1.3939704    0.7038822
C     2.4490052   -1.6474447   -0.0196319
C     1.2150704   -1.0057258   -0.3013573
C     0.2531113   -1.7434440   -1.0216591
H    -0.6541356   -1.2535051   -1.3462847
C     0.4494193   -3.0628597   -1.3413779
H    -0.3083162   -3.5944309   -1.9054060
C     1.6251726   -3.7207967   -0.9552541
H     1.7670048   -4.7687404   -1.1927019
C     2.6109872   -3.0144177   -0.3183050
H     3.5525612   -3.4902813   -0.0646367
Bq         1.3667155811     1.4142268552     0.1301544919
Bq         1.3670716481     1.4641664628     0.1277236895
Bq         1.3674277151     1.5141060705     0.1252928872
Bq         1.3677837820     1.5640456782     0.1228620848
Bq         1.3681398490     1.6139852859     0.1204312824
Bq         1.3684959160     1.6639248936     0.1180004800
Bq         1.3688519829     1.7138645013     0.1155696776
Bq         1.3692080499     1.7638041090     0.1131388752
Bq         1.3695641169     1.8137437167     0.1107080729
Bq         1.3699201839     1.8636833244     0.1082772705
Bq         1.3702762508     1.9136229320     0.1058464681
Bq         1.3706323178     1.9635625397     0.1034156657
Bq         1.3709883848     2.0135021474     0.1009848633
Bq         1.3713444517     2.0634417551     0.0985540609
Bq         1.3717005187     2.1133813628     0.0961232586
Bq         1.3720565857     2.1633209705     0.0936924562
Bq         1.3724126527     2.2132605782     0.0912616538
Bq         1.3727687196     2.2632001859     0.0888308514
Bq         1.3731247866     2.3131397936     0.0864000490
Bq         1.3734808536     2.3630794012     0.0839692466
Bq         1.3738369205     2.4130190089     0.0815384443
Bq         1.3741929875     2.4629586166     0.0791076419
Bq         1.3745490545     2.5128982243     0.0766768395
Bq         1.3749051214     2.5628378320     0.0742460371
Bq         1.3752611884     2.6127774397     0.0718152347
Bq         1.3756172554     2.6627170474     0.0693844324
Bq         1.3759733224     2.7126566551     0.0669536300
Bq         1.3763293893     2.7625962627     0.0645228276
Bq         1.3766854563     2.8125358704     0.0620920252
Bq         1.3770415233     2.8624754781     0.0596612228
Bq         1.3773975902     2.9124150858     0.0572304204
Bq         1.3777536572     2.9623546935     0.0547996181
Bq         1.3781097242     3.0122943012     0.0523688157
Bq         1.3784657912     3.0622339089     0.0499380133
Bq         1.3788218581     3.1121735166     0.0475072109
Bq         1.3791779251     3.1621131243     0.0450764085
Bq         1.3795339921     3.2120527319     0.0426456061
Bq         1.3798900590     3.2619923396     0.0402148038
Bq         1.3802461260     3.3119319473     0.0377840014
Bq         1.3806021930     3.3618715550     0.0353531990
Bq         1.3809582600     3.4118111627     0.0329223966
Bq         1.3813143269     3.4617507704     0.0304915942
Bq         1.3816703939     3.5116903781     0.0280607918
Bq         1.3820264609     3.5616299858     0.0256299895
Bq         1.3823825278     3.6115695935     0.0231991871
Bq         1.3827385948     3.6615092011     0.0207683847
Bq         1.3830946618     3.7114488088     0.0183375823
Bq         1.3834507287     3.7613884165     0.0159067799
Bq         1.3838067957     3.8113280242     0.0134759775
Bq         1.3841628627     3.8612676319     0.0110451752
Bq         1.3845189297     3.9112072396     0.0086143728
Bq         1.3848749966     3.9611468473     0.0061835704
Bq         1.3852310636     4.0110864550     0.0037527680
Bq         1.3855871306     4.0610260627     0.0013219656
Bq         1.3859431975     4.1109656703    -0.0011088368
Bq         1.3862992645     4.1609052780    -0.0035396391
Bq         1.3866553315     4.2108448857    -0.0059704415
Bq         1.3870113985     4.2607844934    -0.0084012439
Bq         1.3873674654     4.3107241011    -0.0108320463
Bq         1.4012328303    -0.6832366678     0.2394949215
Bq         1.4015888972    -0.6332970601     0.2370641191
Bq         1.4019449642    -0.5833574524     0.2346333167
Bq         1.4023010312    -0.5334178447     0.2322025143
Bq         1.4026570982    -0.4834782370     0.2297717120
Bq         1.4030131651    -0.4335386293     0.2273409096
Bq         1.4033692321    -0.3835990216     0.2249101072
Bq         1.4037252991    -0.3336594139     0.2224793048
Bq         1.4040813660    -0.2837198063     0.2200485024
Bq         1.4044374330    -0.2337801986     0.2176177000
Bq         1.4047935000    -0.1838405909     0.2151868977
Bq         1.4051495670    -0.1339009832     0.2127560953
Bq         1.4055056339    -0.0839613755     0.2103252929
Bq         1.4058617009    -0.0340217678     0.2078944905
Bq         1.4062177679     0.0159178399     0.2054636881
Bq         1.4065738348     0.0658574476     0.2030328857
Bq         1.4069299018     0.1157970553     0.2006020834
Bq         1.4072859688     0.1657366629     0.1981712810
Bq         1.4076420358     0.2156762706     0.1957404786
Bq         1.4079981027     0.2656158783     0.1933096762
Bq         1.4083541697     0.3155554860     0.1908788738
Bq         1.4087102367     0.3654950937     0.1884480714
Bq         1.4090663036     0.4154347014     0.1860172691
Bq         1.4094223706     0.4653743091     0.1835864667
Bq         1.4097784376     0.5153139168     0.1811556643
Bq         1.4101345045     0.5652535245     0.1787248619
Bq         1.4104905715     0.6151931321     0.1762940595
Bq         1.4108466385     0.6651327398     0.1738632571
Bq         1.4112027055     0.7150723475     0.1714324548
Bq         1.4115587724     0.7650119552     0.1690016524
Bq         1.4119148394     0.8149515629     0.1665708500
Bq         1.4122709064     0.8648911706     0.1641400476
Bq         1.4126269733     0.9148307783     0.1617092452
Bq         1.4129830403     0.9647703860     0.1592784428
Bq         1.4133391073     1.0147099936     0.1568476405
Bq         1.4136951743     1.0646496013     0.1544168381
Bq         1.4140512412     1.1145892090     0.1519860357
Bq         1.4144073082     1.1645288167     0.1495552333
Bq         1.4147633752     1.2144684244     0.1471244309
Bq         1.4151194421     1.2644080321     0.1446936285
Bq         1.4154755091     1.3143476398     0.1422628262
Bq         1.4158315761     1.3642872475     0.1398320238
Bq         1.4161876431     1.4142268552     0.1374012214
Bq         1.4165437100     1.4641664628     0.1349704190
Bq         1.4168997770     1.5141060705     0.1325396166
Bq         1.4172558440     1.5640456782     0.1301088142
Bq         1.4176119109     1.6139852859     0.1276780119
Bq         1.4179679779     1.6639248936     0.1252472095
Bq         1.4183240449     1.7138645013     0.1228164071
Bq         1.4186801118     1.7638041090     0.1203856047
Bq         1.4190361788     1.8137437167     0.1179548023
Bq         1.4193922458     1.8636833244     0.1155239999
Bq         1.4197483128     1.9136229320     0.1130931976
Bq         1.4201043797     1.9635625397     0.1106623952
Bq         1.4204604467     2.0135021474     0.1082315928
Bq         1.4208165137     2.0634417551     0.1058007904
Bq         1.4211725806     2.1133813628     0.1033699880
Bq         1.4215286476     2.1633209705     0.1009391856
Bq         1.4218847146     2.2132605782     0.0985083833
Bq         1.4222407816     2.2632001859     0.0960775809
Bq         1.4225968485     2.3131397936     0.0936467785
Bq         1.4229529155     2.3630794012     0.0912159761
Bq         1.4233089825     2.4130190089     0.0887851737
Bq         1.4236650494     2.4629586166     0.0863543713
Bq         1.4240211164     2.5128982243     0.0839235690
Bq         1.4243771834     2.5628378320     0.0814927666
Bq         1.4247332504     2.6127774397     0.0790619642
Bq         1.4250893173     2.6627170474     0.0766311618
Bq         1.4254453843     2.7126566551     0.0742003594
Bq         1.4258014513     2.7625962627     0.0717695570
Bq         1.4261575182     2.8125358704     0.0693387547
Bq         1.4265135852     2.8624754781     0.0669079523
Bq         1.4268696522     2.9124150858     0.0644771499
Bq         1.4272257191     2.9623546935     0.0620463475
Bq         1.4275817861     3.0122943012     0.0596155451
Bq         1.4279378531     3.0622339089     0.0571847427
Bq         1.4282939201     3.1121735166     0.0547539404
Bq         1.4286499870     3.1621131243     0.0523231380
Bq         1.4290060540     3.2120527319     0.0498923356
Bq         1.4293621210     3.2619923396     0.0474615332
Bq         1.4297181879     3.3119319473     0.0450307308
Bq         1.4300742549     3.3618715550     0.0425999284
Bq         1.4304303219     3.4118111627     0.0401691261
Bq         1.4307863889     3.4617507704     0.0377383237
Bq         1.4311424558     3.5116903781     0.0353075213
Bq         1.4314985228     3.5616299858     0.0328767189
Bq         1.4318545898     3.6115695935     0.0304459165
Bq         1.4322106567     3.6615092011     0.0280151141
Bq         1.4325667237     3.7114488088     0.0255843118
Bq         1.4329227907     3.7613884165     0.0231535094
Bq         1.4332788577     3.8113280242     0.0207227070
Bq         1.4336349246     3.8612676319     0.0182919046
Bq         1.4339909916     3.9112072396     0.0158611022
Bq         1.4343470586     3.9611468473     0.0134302998
Bq         1.4347031255     4.0110864550     0.0109994975
Bq         1.4350591925     4.0610260627     0.0085686951
Bq         1.4354152595     4.1109656703     0.0061378927
Bq         1.4357713264     4.1609052780     0.0037070903
Bq         1.4361273934     4.2108448857     0.0012762879
Bq         1.4364834604     4.2607844934    -0.0011545145
Bq         1.4368395274     4.3107241011    -0.0035853168
Bq         1.4507048922    -0.6832366678     0.2467416509
Bq         1.4510609592    -0.6332970601     0.2443108486
Bq         1.4514170262    -0.5833574524     0.2418800462
Bq         1.4517730931    -0.5334178447     0.2394492438
Bq         1.4521291601    -0.4834782370     0.2370184414
Bq         1.4524852271    -0.4335386293     0.2345876390
Bq         1.4528412940    -0.3835990216     0.2321568366
Bq         1.4531973610    -0.3336594139     0.2297260343
Bq         1.4535534280    -0.2837198063     0.2272952319
Bq         1.4539094950    -0.2337801986     0.2248644295
Bq         1.4542655619    -0.1838405909     0.2224336271
Bq         1.4546216289    -0.1339009832     0.2200028247
Bq         1.4549776959    -0.0839613755     0.2175720223
Bq         1.4553337628    -0.0340217678     0.2151412200
Bq         1.4556898298     0.0159178399     0.2127104176
Bq         1.4560458968     0.0658574476     0.2102796152
Bq         1.4564019637     0.1157970553     0.2078488128
Bq         1.4567580307     0.1657366629     0.2054180104
Bq         1.4571140977     0.2156762706     0.2029872080
Bq         1.4574701647     0.2656158783     0.2005564057
Bq         1.4578262316     0.3155554860     0.1981256033
Bq         1.4581822986     0.3654950937     0.1956948009
Bq         1.4585383656     0.4154347014     0.1932639985
Bq         1.4588944325     0.4653743091     0.1908331961
Bq         1.4592504995     0.5153139168     0.1884023937
Bq         1.4596065665     0.5652535245     0.1859715914
Bq         1.4599626335     0.6151931321     0.1835407890
Bq         1.4603187004     0.6651327398     0.1811099866
Bq         1.4606747674     0.7150723475     0.1786791842
Bq         1.4610308344     0.7650119552     0.1762483818
Bq         1.4613869013     0.8149515629     0.1738175794
Bq         1.4617429683     0.8648911706     0.1713867771
Bq         1.4620990353     0.9148307783     0.1689559747
Bq         1.4624551023     0.9647703860     0.1665251723
Bq         1.4628111692     1.0147099936     0.1640943699
Bq         1.4631672362     1.0646496013     0.1616635675
Bq         1.4635233032     1.1145892090     0.1592327651
Bq         1.4638793701     1.1645288167     0.1568019628
Bq         1.4642354371     1.2144684244     0.1543711604
Bq         1.4645915041     1.2644080321     0.1519403580

1
2
3
4
5
6
7
8
9
10
11
12
13
14
15
16
17
18
19
20
21
22
23
24
25
26
27
28
29
30
31
32
33
34
35
36
37
38
39
40
41
42
43
44
45
46
47
48
49
50
51
52
53
54
55
56
57
58
59
60
61
62
63
64
65
66
67
68
69
70
71
72
73
74
75
76
77
78
79
80
81
82
83
84
85
86
87
88
89
90
91
92
93
94
95
96
97
98
99
100
101
102
103
104
105
106
107
108
109
110
111
112
113
114
115
116
117
118
119
120
121
122
123
124
125
126
127
128
129
130
131
132
133
134
135
136
137
138
139
140
141
142
143
144
145
146
147
148
149
150
151
152
153
154
155
156
157
158
159
160
161
162
163
164
165
166
167
168
169
170
171
172
173
174
175
176
177
178
179
180
181
182
183
184
185
186
187
188
189
190
191
192
193
194
195
196
197
198
199
200
201
202
203
204
205
206
207
208
209
210
211
212
213
214
215
216
217
218
219
220
221
222
223
224
225
226
227
228
229
230
231
232
233
234
235
236

