%nproc=8
%mem=1000MB
# rb3lyp/6-311+g** NMR geom=connectivity

Title

0 1
C    -4.0500558   -0.5771862    0.8136712
H    -5.0263804   -1.0082727    1.0024760
C    -3.9381552    0.6617804    0.2400876
H    -4.8252424    1.2338890   -0.0111295
C    -2.6768410    1.2433246    0.0057578
C    -1.4974121    0.5051527    0.2848253
C    -1.6508332   -0.7338728    0.9404026
H    -0.7713646   -1.2730967    1.2633753
C    -2.8898548   -1.2624035    1.1994307
H    -2.9683706   -2.2124563    1.7152676
C    -2.5773185    2.5963696   -0.4192930
H    -3.4870728    3.1412239   -0.6474055
C    -1.3741895    3.2147896   -0.4364030
H    -1.2997315    4.2742019   -0.6578144
C    -0.1719488    2.4994090   -0.1734588
C    -0.2043917    1.1018437    0.0192689
C     1.0513491    3.2042560   -0.0676222
H     1.0427344    4.2819499   -0.1896997
C     2.1942091    2.5487446    0.2579577
H     3.1168527    3.0912848    0.4334727
C     2.2216473    1.1336562    0.2934990
C     1.0486931    0.3945528    0.0302412
C     3.4483363    0.4614633    0.5573939
H     4.3095794    1.0606054    0.8334846
C     3.5427346   -0.8855926    0.4749463
H     4.4731467   -1.3939704    0.7038822
C     2.4490052   -1.6474447   -0.0196319
C     1.2150704   -1.0057258   -0.3013573
C     0.2531113   -1.7434440   -1.0216591
H    -0.6541356   -1.2535051   -1.3462847
C     0.4494193   -3.0628597   -1.3413779
H    -0.3083162   -3.5944309   -1.9054060
C     1.6251726   -3.7207967   -0.9552541
H     1.7670048   -4.7687404   -1.1927019
C     2.6109872   -3.0144177   -0.3183050
H     3.5525612   -3.4902813   -0.0646367
Bq        -4.3312827230     1.3235700901    -0.0776329599
Bq        -4.3311972569     1.3685957864    -0.0993741504
Bq        -4.3311117908     1.4136214827    -0.1211153410
Bq        -4.3310263246     1.4586471791    -0.1428565315
Bq        -4.3309408585     1.5036728754    -0.1645977220
Bq        -4.3308553923     1.5486985717    -0.1863389125
Bq        -4.3307699262     1.5937242681    -0.2080801030
Bq        -4.3306844601     1.6387499644    -0.2298212935
Bq        -4.3305989939     1.6837756607    -0.2515624841
Bq        -4.3305135278     1.7288013571    -0.2733036746
Bq        -4.3304280617     1.7738270534    -0.2950448651
Bq        -4.3303425955     1.8188527497    -0.3167860556
Bq        -4.3302571294     1.8638784461    -0.3385272461
Bq        -4.3301716633     1.9089041424    -0.3602684366
Bq        -4.3300861971     1.9539298388    -0.3820096272
Bq        -4.3300007310     1.9989555351    -0.4037508177
Bq        -4.3299152648     2.0439812314    -0.4254920082
Bq        -4.3298297987     2.0890069278    -0.4472331987
Bq        -4.3297443326     2.1340326241    -0.4689743892
Bq        -4.3296588664     2.1790583204    -0.4907155797
Bq        -4.3295734003     2.2240840168    -0.5124567702
Bq        -4.2881204004    -2.2784856168     1.6618588333
Bq        -4.2880349342    -2.2334599204     1.6401176428
Bq        -4.2879494681    -2.1884342241     1.6183764523
Bq        -4.2878640019    -2.1434085278     1.5966352618
Bq        -4.2877785358    -2.0983828314     1.5748940713
Bq        -4.2876930697    -2.0533571351     1.5531528808
Bq        -4.2876076035    -2.0083314388     1.5314116902
Bq        -4.2875221374    -1.9633057424     1.5096704997
Bq        -4.2874366713    -1.9182800461     1.4879293092
Bq        -4.2873512051    -1.8732543497     1.4661881187
Bq        -4.2872657390    -1.8282286534     1.4444469282
Bq        -4.2871802728    -1.7832029571     1.4227057377
Bq        -4.2870948067    -1.7381772607     1.4009645472
Bq        -4.2870093406    -1.6931515644     1.3792233566
Bq        -4.2869238744    -1.6481258681     1.3574821661
Bq        -4.2868384083    -1.6031001717     1.3357409756
Bq        -4.2867529422    -1.5580744754     1.3139997851
Bq        -4.2866674760    -1.5130487791     1.2922585946
Bq        -4.2865820099    -1.4680230827     1.2705174041
Bq        -4.2864965437    -1.4229973864     1.2487762135
Bq        -4.2864110776    -1.3779716901     1.2270350230
Bq        -4.2863256115    -1.3329459937     1.2052938325
Bq        -4.2862401453    -1.2879202974     1.1835526420
Bq        -4.2861546792    -1.2428946011     1.1618114515
Bq        -4.2860692131    -1.1978689047     1.1400702610
Bq        -4.2859837469    -1.1528432084     1.1183290704
Bq        -4.2858982808    -1.1078175120     1.0965878799
Bq        -4.2858128146    -1.0627918157     1.0748466894
Bq        -4.2857273485    -1.0177661194     1.0531054989
Bq        -4.2856418824    -0.9727404230     1.0313643084
Bq        -4.2855564162    -0.9277147267     1.0096231179
Bq        -4.2854709501    -0.8826890304     0.9878819273
Bq        -4.2853854840    -0.8376633340     0.9661407368
Bq        -4.2853000178    -0.7926376377     0.9443995463
Bq        -4.2852145517    -0.7476119414     0.9226583558
Bq        -4.2851290855    -0.7025862450     0.9009171653
Bq        -4.2850436194    -0.6575605487     0.8791759748
Bq        -4.2849581533    -0.6125348524     0.8574347842
Bq        -4.2848726871    -0.5675091560     0.8356935937
Bq        -4.2847872210    -0.5224834597     0.8139524032
Bq        -4.2847017549    -0.4774577634     0.7922112127
Bq        -4.2846162887    -0.4324320670     0.7704700222
Bq        -4.2845308226    -0.3874063707     0.7487288317
Bq        -4.2844453564    -0.3423806743     0.7269876411
Bq        -4.2843598903    -0.2973549780     0.7052464506
Bq        -4.2842744242    -0.2523292817     0.6835052601
Bq        -4.2841889580    -0.2073035853     0.6617640696
Bq        -4.2841034919    -0.1622778890     0.6400228791
Bq        -4.2840180258    -0.1172521927     0.6182816886
Bq        -4.2839325596    -0.0722264963     0.5965404980
Bq        -4.2838470935    -0.0272008000     0.5747993075
Bq        -4.2837616273     0.0178248963     0.5530581170
Bq        -4.2836761612     0.0628505927     0.5313169265
Bq        -4.2835906951     0.1078762890     0.5095757360
Bq        -4.2835052289     0.1529019853     0.4878345455
Bq        -4.2834197628     0.1979276817     0.4660933550
Bq        -4.2833342967     0.2429533780     0.4443521644
Bq        -4.2832488305     0.2879790743     0.4226109739
Bq        -4.2831633644     0.3330047707     0.4008697834
Bq        -4.2830778982     0.3780304670     0.3791285929
Bq        -4.2829924321     0.4230561634     0.3573874024
Bq        -4.2829069660     0.4680818597     0.3356462119
Bq        -4.2828214998     0.5131075560     0.3139050213
Bq        -4.2827360337     0.5581332524     0.2921638308
Bq        -4.2826505676     0.6031589487     0.2704226403
Bq        -4.2825651014     0.6481846450     0.2486814498
Bq        -4.2824796353     0.6932103414     0.2269402593
Bq        -4.2823941692     0.7382360377     0.2051990688
Bq        -4.2823087030     0.7832617340     0.1834578782
Bq        -4.2822232369     0.8282874304     0.1617166877
Bq        -4.2821377707     0.8733131267     0.1399754972
Bq        -4.2820523046     0.9183388230     0.1182343067
Bq        -4.2819668385     0.9633645194     0.0964931162
Bq        -4.2818813723     1.0083902157     0.0747519257
Bq        -4.2817959062     1.0534159120     0.0530107351
Bq        -4.2817104401     1.0984416084     0.0312695446
Bq        -4.2816249739     1.1434673047     0.0095283541
Bq        -4.2815395078     1.1884930011    -0.0122128364
Bq        -4.2814540416     1.2335186974    -0.0339540269
Bq        -4.2813685755     1.2785443937    -0.0556952174
Bq        -4.2812831094     1.3235700901    -0.0774364080
Bq        -4.2811976432     1.3685957864    -0.0991775985
Bq        -4.2811121771     1.4136214827    -0.1209187890
Bq        -4.2810267110     1.4586471791    -0.1426599795
Bq        -4.2809412448     1.5036728754    -0.1644011700
Bq        -4.2808557787     1.5486985717    -0.1861423605
Bq        -4.2807703125     1.5937242681    -0.2078835511
Bq        -4.2806848464     1.6387499644    -0.2296247416
Bq        -4.2805993803     1.6837756607    -0.2513659321
Bq        -4.2805139141     1.7288013571    -0.2731071226
Bq        -4.2804284480     1.7738270534    -0.2948483131
Bq        -4.2803429819     1.8188527497    -0.3165895036
Bq        -4.2802575157     1.8638784461    -0.3383306941
Bq        -4.2801720496     1.9089041424    -0.3600718847
Bq        -4.2800865834     1.9539298388    -0.3818130752
Bq        -4.2800011173     1.9989555351    -0.4035542657
Bq        -4.2799156512     2.0439812314    -0.4252954562
Bq        -4.2798301850     2.0890069278    -0.4470366467
Bq        -4.2797447189     2.1340326241    -0.4687778372
Bq        -4.2796592528     2.1790583204    -0.4905190278
Bq        -4.2795737866     2.2240840168    -0.5122602183
Bq        -4.2381207867    -2.2784856168     1.6620553853
Bq        -4.2380353205    -2.2334599204     1.6403141948
Bq        -4.2379498544    -2.1884342241     1.6185730043
Bq        -4.2378643883    -2.1434085278     1.5968318138
Bq        -4.2377789221    -2.0983828314     1.5750906233
Bq        -4.2376934560    -2.0533571351     1.5533494327
Bq        -4.2376079899    -2.0083314388     1.5316082422
Bq        -4.2375225237    -1.9633057424     1.5098670517
Bq        -4.2374370576    -1.9182800461     1.4881258612
Bq        -4.2373515914    -1.8732543497     1.4663846707
Bq        -4.2372661253    -1.8282286534     1.4446434802
Bq        -4.2371806592    -1.7832029571     1.4229022896
Bq        -4.2370951930    -1.7381772607     1.4011610991
Bq        -4.2370097269    -1.6931515644     1.3794199086
Bq        -4.2369242608    -1.6481258681     1.3576787181
Bq        -4.2368387946    -1.6031001717     1.3359375276
Bq        -4.2367533285    -1.5580744754     1.3141963371
Bq        -4.2366678623    -1.5130487791     1.2924551465
Bq        -4.2365823962    -1.4680230827     1.2707139560
Bq        -4.2364969301    -1.4229973864     1.2489727655
Bq        -4.2364114639    -1.3779716901     1.2272315750
Bq        -4.2363259978    -1.3329459937     1.2054903845
Bq        -4.2362405317    -1.2879202974     1.1837491940
Bq        -4.2361550655    -1.2428946011     1.1620080034
Bq        -4.2360695994    -1.1978689047     1.1402668129
Bq        -4.2359841332    -1.1528432084     1.1185256224
Bq        -4.2358986671    -1.1078175120     1.0967844319
Bq        -4.2358132010    -1.0627918157     1.0750432414
Bq        -4.2357277348    -1.0177661194     1.0533020509
Bq        -4.2356422687    -0.9727404230     1.0315608603
Bq        -4.2355568026    -0.9277147267     1.0098196698
Bq        -4.2354713364    -0.8826890304     0.9880784793
Bq        -4.2353858703    -0.8376633340     0.9663372888
Bq        -4.2353004041    -0.7926376377     0.9445960983
Bq        -4.2352149380    -0.7476119414     0.9228549078
Bq        -4.2351294719    -0.7025862450     0.9011137172
Bq        -4.2350440057    -0.6575605487     0.8793725267
Bq        -4.2349585396    -0.6125348524     0.8576313362
Bq        -4.2348730735    -0.5675091560     0.8358901457
Bq        -4.2347876073    -0.5224834597     0.8141489552
Bq        -4.2347021412    -0.4774577634     0.7924077647
Bq        -4.2346166750    -0.4324320670     0.7706665742
Bq        -4.2345312089    -0.3874063707     0.7489253836
Bq        -4.2344457428    -0.3423806743     0.7271841931
Bq        -4.2343602766    -0.2973549780     0.7054430026
Bq        -4.2342748105    -0.2523292817     0.6837018121
Bq        -4.2341893444    -0.2073035853     0.6619606216
Bq        -4.2341038782    -0.1622778890     0.6402194311
Bq        -4.2340184121    -0.1172521927     0.6184782405
Bq        -4.2339329460    -0.0722264963     0.5967370500
Bq        -4.2338474798    -0.0272008000     0.5749958595
Bq        -4.2337620137     0.0178248963     0.5532546690
Bq        -4.2336765475     0.0628505927     0.5315134785
Bq        -4.2335910814     0.1078762890     0.5097722880
Bq        -4.2335056153     0.1529019853     0.4880310974
Bq        -4.2334201491     0.1979276817     0.4662899069
Bq        -4.2333346830     0.2429533780     0.4445487164
Bq        -4.2332492169     0.2879790743     0.4228075259
Bq        -4.2331637507     0.3330047707     0.4010663354
Bq        -4.2330782846     0.3780304670     0.3793251449
Bq        -4.2329928184     0.4230561634     0.3575839543
Bq        -4.2329073523     0.4680818597     0.3358427638
Bq        -4.2328218862     0.5131075560     0.3141015733
Bq        -4.2327364200     0.5581332524     0.2923603828
Bq        -4.2326509539     0.6031589487     0.2706191923
Bq        -4.2325654878     0.6481846450     0.2488780018
Bq        -4.2324800216     0.6932103414     0.2271368112
Bq        -4.2323945555     0.7382360377     0.2053956207
Bq        -4.2323090893     0.7832617340     0.1836544302
Bq        -4.2322236232     0.8282874304     0.1619132397
Bq        -4.2321381571     0.8733131267     0.1401720492
Bq        -4.2320526909     0.9183388230     0.1184308587
Bq        -4.2319672248     0.9633645194     0.0966896681
Bq        -4.2318817587     1.0083902157     0.0749484776
Bq        -4.2317962925     1.0534159120     0.0532072871
Bq        -4.2317108264     1.0984416084     0.0314660966
Bq        -4.2316253602     1.1434673047     0.0097249061
Bq        -4.2315398941     1.1884930011    -0.0120162844

1
2
3
4
5
6
7
8
9
10
11
12
13
14
15
16
17
18
19
20
21
22
23
24
25
26
27
28
29
30
31
32
33
34
35
36
37
38
39
40
41
42
43
44
45
46
47
48
49
50
51
52
53
54
55
56
57
58
59
60
61
62
63
64
65
66
67
68
69
70
71
72
73
74
75
76
77
78
79
80
81
82
83
84
85
86
87
88
89
90
91
92
93
94
95
96
97
98
99
100
101
102
103
104
105
106
107
108
109
110
111
112
113
114
115
116
117
118
119
120
121
122
123
124
125
126
127
128
129
130
131
132
133
134
135
136
137
138
139
140
141
142
143
144
145
146
147
148
149
150
151
152
153
154
155
156
157
158
159
160
161
162
163
164
165
166
167
168
169
170
171
172
173
174
175
176
177
178
179
180
181
182
183
184
185
186
187
188
189
190
191
192
193
194
195
196
197
198
199
200
201
202
203
204
205
206
207
208
209
210
211
212
213
214
215
216
217
218
219
220
221
222
223
224
225
226
227
228
229
230
231
232
233
234
235
236

