%nproc=8
%mem=1000MB
# rb3lyp/6-311+g** NMR geom=connectivity

Title

0 1
C    -4.0500558   -0.5771862    0.8136712
H    -5.0263804   -1.0082727    1.0024760
C    -3.9381552    0.6617804    0.2400876
H    -4.8252424    1.2338890   -0.0111295
C    -2.6768410    1.2433246    0.0057578
C    -1.4974121    0.5051527    0.2848253
C    -1.6508332   -0.7338728    0.9404026
H    -0.7713646   -1.2730967    1.2633753
C    -2.8898548   -1.2624035    1.1994307
H    -2.9683706   -2.2124563    1.7152676
C    -2.5773185    2.5963696   -0.4192930
H    -3.4870728    3.1412239   -0.6474055
C    -1.3741895    3.2147896   -0.4364030
H    -1.2997315    4.2742019   -0.6578144
C    -0.1719488    2.4994090   -0.1734588
C    -0.2043917    1.1018437    0.0192689
C     1.0513491    3.2042560   -0.0676222
H     1.0427344    4.2819499   -0.1896997
C     2.1942091    2.5487446    0.2579577
H     3.1168527    3.0912848    0.4334727
C     2.2216473    1.1336562    0.2934990
C     1.0486931    0.3945528    0.0302412
C     3.4483363    0.4614633    0.5573939
H     4.3095794    1.0606054    0.8334846
C     3.5427346   -0.8855926    0.4749463
H     4.4731467   -1.3939704    0.7038822
C     2.4490052   -1.6474447   -0.0196319
C     1.2150704   -1.0057258   -0.3013573
C     0.2531113   -1.7434440   -1.0216591
H    -0.6541356   -1.2535051   -1.3462847
C     0.4494193   -3.0628597   -1.3413779
H    -0.3083162   -3.5944309   -1.9054060
C     1.6251726   -3.7207967   -0.9552541
H     1.7670048   -4.7687404   -1.1927019
C     2.6109872   -3.0144177   -0.3183050
H     3.5525612   -3.4902813   -0.0646367
Bq         1.1841592033    -2.1729954679    -0.7145145182
Bq         1.1786559666    -2.1247989766    -0.7023978929
Bq         1.1731527299    -2.0766024852    -0.6902812677
Bq         1.1676494932    -2.0284059938    -0.6781646425
Bq         1.1621462566    -1.9802095025    -0.6660480172
Bq         1.1566430199    -1.9320130111    -0.6539313920
Bq         1.1511397832    -1.8838165198    -0.6418147668
Bq         1.1456365465    -1.8356200284    -0.6296981416
Bq         1.1401333098    -1.7874235371    -0.6175815163
Bq         1.1346300731    -1.7392270457    -0.6054648911
Bq         1.1291268364    -1.6910305543    -0.5933482659
Bq         1.1236235998    -1.6428340630    -0.5812316406
Bq         1.1181203631    -1.5946375716    -0.5691150154
Bq         1.1126171264    -1.5464410803    -0.5569983902
Bq         1.1071138897    -1.4982445889    -0.5448817649
Bq         1.1016106530    -1.4500480976    -0.5327651397
Bq         1.0961074163    -1.4018516062    -0.5206485145
Bq         1.0906041796    -1.3536551149    -0.5085318893
Bq         1.0851009430    -1.3054586235    -0.4964152640
Bq         1.0795977063    -1.2572621321    -0.4842986388
Bq         1.0740944696    -1.2090656408    -0.4721820136
Bq         1.0685912329    -1.1608691494    -0.4600653883
Bq         1.0630879962    -1.1126726581    -0.4479487631
Bq         1.0575847595    -1.0644761667    -0.4358321379
Bq         1.0520815228    -1.0162796754    -0.4237155127
Bq         1.0465782862    -0.9680831840    -0.4115988874
Bq         1.0410750495    -0.9198866927    -0.3994822622
Bq         1.0355718128    -0.8716902013    -0.3873656370
Bq         1.0300685761    -0.8234937099    -0.3752490117
Bq         1.0245653394    -0.7752972186    -0.3631323865
Bq         1.0190621027    -0.7271007272    -0.3510157613
Bq         1.0135588660    -0.6789042359    -0.3388991361
Bq         1.0080556294    -0.6307077445    -0.3267825108
Bq         1.0025523927    -0.5825112532    -0.3146658856
Bq         0.9970491560    -0.5343147618    -0.3025492604
Bq         0.9915459193    -0.4861182704    -0.2904326351
Bq         0.9860426826    -0.4379217791    -0.2783160099
Bq         0.9805394459    -0.3897252877    -0.2661993847
Bq         0.9750362092    -0.3415287964    -0.2540827595
Bq         0.9695329725    -0.2933323050    -0.2419661342
Bq         0.9640297359    -0.2451358137    -0.2298495090
Bq         0.9585264992    -0.1969393223    -0.2177328838
Bq         0.9530232625    -0.1487428310    -0.2056162585
Bq         0.9475200258    -0.1005463396    -0.1934996333
Bq         0.9420167891    -0.0523498482    -0.1813830081
Bq         0.9365135524    -0.0041533569    -0.1692663828
Bq         0.9310103157     0.0440431345    -0.1571497576
Bq         1.5268584210    -4.7756060011    -1.3481355867
Bq         1.5213551843    -4.7274095098    -1.3360189615
Bq         1.5158519476    -4.6792130184    -1.3239023362
Bq         1.5103487110    -4.6310165271    -1.3117857110
Bq         1.5048454743    -4.5828200357    -1.2996690858
Bq         1.4993422376    -4.5346235444    -1.2875524606
Bq         1.4938390009    -4.4864270530    -1.2754358353
Bq         1.4883357642    -4.4382305616    -1.2633192101
Bq         1.4828325275    -4.3900340703    -1.2512025849
Bq         1.4773292908    -4.3418375789    -1.2390859596
Bq         1.4718260541    -4.2936410876    -1.2269693344
Bq         1.4663228175    -4.2454445962    -1.2148527092
Bq         1.4608195808    -4.1972481049    -1.2027360840
Bq         1.4553163441    -4.1490516135    -1.1906194587
Bq         1.4498131074    -4.1008551222    -1.1785028335
Bq         1.4443098707    -4.0526586308    -1.1663862083
Bq         1.4388066340    -4.0044621394    -1.1542695830
Bq         1.4333033973    -3.9562656481    -1.1421529578
Bq         1.4278001607    -3.9080691567    -1.1300363326
Bq         1.4222969240    -3.8598726654    -1.1179197074
Bq         1.4167936873    -3.8116761740    -1.1058030821
Bq         1.4112904506    -3.7634796827    -1.0936864569
Bq         1.4057872139    -3.7152831913    -1.0815698317
Bq         1.4002839772    -3.6670866999    -1.0694532064
Bq         1.3947807405    -3.6188902086    -1.0573365812
Bq         1.3892775039    -3.5706937172    -1.0452199560
Bq         1.3837742672    -3.5224972259    -1.0331033308
Bq         1.3782710305    -3.4743007345    -1.0209867055
Bq         1.3727677938    -3.4261042432    -1.0088700803
Bq         1.3672645571    -3.3779077518    -0.9967534551
Bq         1.3617613204    -3.3297112605    -0.9846368298
Bq         1.3562580837    -3.2815147691    -0.9725202046
Bq         1.3507548471    -3.2333182777    -0.9604035794
Bq         1.3452516104    -3.1851217864    -0.9482869541
Bq         1.3397483737    -3.1369252950    -0.9361703289
Bq         1.3342451370    -3.0887288037    -0.9240537037
Bq         1.3287419003    -3.0405323123    -0.9119370785
Bq         1.3232386636    -2.9923358210    -0.8998204532
Bq         1.3177354269    -2.9441393296    -0.8877038280
Bq         1.3122321903    -2.8959428383    -0.8755872028
Bq         1.3067289536    -2.8477463469    -0.8634705775
Bq         1.3012257169    -2.7995498555    -0.8513539523
Bq         1.2957224802    -2.7513533642    -0.8392373271
Bq         1.2902192435    -2.7031568728    -0.8271207019
Bq         1.2847160068    -2.6549603815    -0.8150040766
Bq         1.2792127701    -2.6067638901    -0.8028874514
Bq         1.2737095335    -2.5585673988    -0.7907708262
Bq         1.2682062968    -2.5103709074    -0.7786542009
Bq         1.2627030601    -2.4621744160    -0.7665375757
Bq         1.2571998234    -2.4139779247    -0.7544209505
Bq         1.2516965867    -2.3657814333    -0.7423043253
Bq         1.2461933500    -2.3175849420    -0.7301877000
Bq         1.2406901133    -2.2693884506    -0.7180710748
Bq         1.2351868766    -2.2211919593    -0.7059544496
Bq         1.2296836400    -2.1729954679    -0.6938378243
Bq         1.2241804033    -2.1247989766    -0.6817211991
Bq         1.2186771666    -2.0766024852    -0.6696045739
Bq         1.2131739299    -2.0284059938    -0.6574879487
Bq         1.2076706932    -1.9802095025    -0.6453713234
Bq         1.2021674565    -1.9320130111    -0.6332546982
Bq         1.1966642198    -1.8838165198    -0.6211380730
Bq         1.1911609832    -1.8356200284    -0.6090214477
Bq         1.1856577465    -1.7874235371    -0.5969048225
Bq         1.1801545098    -1.7392270457    -0.5847881973
Bq         1.1746512731    -1.6910305543    -0.5726715721
Bq         1.1691480364    -1.6428340630    -0.5605549468
Bq         1.1636447997    -1.5946375716    -0.5484383216
Bq         1.1581415630    -1.5464410803    -0.5363216964
Bq         1.1526383264    -1.4982445889    -0.5242050711
Bq         1.1471350897    -1.4500480976    -0.5120884459
Bq         1.1416318530    -1.4018516062    -0.4999718207
Bq         1.1361286163    -1.3536551149    -0.4878551954
Bq         1.1306253796    -1.3054586235    -0.4757385702
Bq         1.1251221429    -1.2572621321    -0.4636219450
Bq         1.1196189062    -1.2090656408    -0.4515053198
Bq         1.1141156696    -1.1608691494    -0.4393886945
Bq         1.1086124329    -1.1126726581    -0.4272720693
Bq         1.1031091962    -1.0644761667    -0.4151554441
Bq         1.0976059595    -1.0162796754    -0.4030388188
Bq         1.0921027228    -0.9680831840    -0.3909221936
Bq         1.0865994861    -0.9198866927    -0.3788055684
Bq         1.0810962494    -0.8716902013    -0.3666889432
Bq         1.0755930128    -0.8234937099    -0.3545723179
Bq         1.0700897761    -0.7752972186    -0.3424556927
Bq         1.0645865394    -0.7271007272    -0.3303390675
Bq         1.0590833027    -0.6789042359    -0.3182224422
Bq         1.0535800660    -0.6307077445    -0.3061058170
Bq         1.0480768293    -0.5825112532    -0.2939891918
Bq         1.0425735926    -0.5343147618    -0.2818725666
Bq         1.0370703560    -0.4861182704    -0.2697559413
Bq         1.0315671193    -0.4379217791    -0.2576393161
Bq         1.0260638826    -0.3897252877    -0.2455226909
Bq         1.0205606459    -0.3415287964    -0.2334060656
Bq         1.0150574092    -0.2933323050    -0.2212894404
Bq         1.0095541725    -0.2451358137    -0.2091728152
Bq         1.0040509358    -0.1969393223    -0.1970561900
Bq         0.9985476991    -0.1487428310    -0.1849395647
Bq         0.9930444625    -0.1005463396    -0.1728229395
Bq         0.9875412258    -0.0523498482    -0.1607063143
Bq         0.9820379891    -0.0041533569    -0.1485896890
Bq         0.9765347524     0.0440431345    -0.1364730638
Bq         1.5723828577    -4.7756060011    -1.3274588929
Bq         1.5668796210    -4.7274095098    -1.3153422677
Bq         1.5613763843    -4.6792130184    -1.3032256424
Bq         1.5558731476    -4.6310165271    -1.2911090172
Bq         1.5503699109    -4.5828200357    -1.2789923920
Bq         1.5448666742    -4.5346235444    -1.2668757667
Bq         1.5393634375    -4.4864270530    -1.2547591415
Bq         1.5338602009    -4.4382305616    -1.2426425163
Bq         1.5283569642    -4.3900340703    -1.2305258911
Bq         1.5228537275    -4.3418375789    -1.2184092658
Bq         1.5173504908    -4.2936410876    -1.2062926406
Bq         1.5118472541    -4.2454445962    -1.1941760154
Bq         1.5063440174    -4.1972481049    -1.1820593901
Bq         1.5008407807    -4.1490516135    -1.1699427649
Bq         1.4953375441    -4.1008551222    -1.1578261397
Bq         1.4898343074    -4.0526586308    -1.1457095145
Bq         1.4843310707    -4.0044621394    -1.1335928892
Bq         1.4788278340    -3.9562656481    -1.1214762640
Bq         1.4733245973    -3.9080691567    -1.1093596388
Bq         1.4678213606    -3.8598726654    -1.0972430135
Bq         1.4623181239    -3.8116761740    -1.0851263883
Bq         1.4568148873    -3.7634796827    -1.0730097631
Bq         1.4513116506    -3.7152831913    -1.0608931379
Bq         1.4458084139    -3.6670866999    -1.0487765126
Bq         1.4403051772    -3.6188902086    -1.0366598874
Bq         1.4348019405    -3.5706937172    -1.0245432622
Bq         1.4292987038    -3.5224972259    -1.0124266369
Bq         1.4237954671    -3.4743007345    -1.0003100117
Bq         1.4182922305    -3.4261042432    -0.9881933865
Bq         1.4127889938    -3.3779077518    -0.9760767613
Bq         1.4072857571    -3.3297112605    -0.9639601360
Bq         1.4017825204    -3.2815147691    -0.9518435108
Bq         1.3962792837    -3.2333182777    -0.9397268856
Bq         1.3907760470    -3.1851217864    -0.9276102603
Bq         1.3852728103    -3.1369252950    -0.9154936351
Bq         1.3797695737    -3.0887288037    -0.9033770099
Bq         1.3742663370    -3.0405323123    -0.8912603846
Bq         1.3687631003    -2.9923358210    -0.8791437594
Bq         1.3632598636    -2.9441393296    -0.8670271342
Bq         1.3577566269    -2.8959428383    -0.8549105090
Bq         1.3522533902    -2.8477463469    -0.8427938837
Bq         1.3467501535    -2.7995498555    -0.8306772585
Bq         1.3412469169    -2.7513533642    -0.8185606333
Bq         1.3357436802    -2.7031568728    -0.8064440080
Bq         1.3302404435    -2.6549603815    -0.7943273828
Bq         1.3247372068    -2.6067638901    -0.7822107576
Bq         1.3192339701    -2.5585673988    -0.7700941324
Bq         1.3137307334    -2.5103709074    -0.7579775071
Bq         1.3082274967    -2.4621744160    -0.7458608819
Bq         1.3027242600    -2.4139779247    -0.7337442567
Bq         1.2972210234    -2.3657814333    -0.7216276314
Bq         1.2917177867    -2.3175849420    -0.7095110062

1
2
3
4
5
6
7
8
9
10
11
12
13
14
15
16
17
18
19
20
21
22
23
24
25
26
27
28
29
30
31
32
33
34
35
36
37
38
39
40
41
42
43
44
45
46
47
48
49
50
51
52
53
54
55
56
57
58
59
60
61
62
63
64
65
66
67
68
69
70
71
72
73
74
75
76
77
78
79
80
81
82
83
84
85
86
87
88
89
90
91
92
93
94
95
96
97
98
99
100
101
102
103
104
105
106
107
108
109
110
111
112
113
114
115
116
117
118
119
120
121
122
123
124
125
126
127
128
129
130
131
132
133
134
135
136
137
138
139
140
141
142
143
144
145
146
147
148
149
150
151
152
153
154
155
156
157
158
159
160
161
162
163
164
165
166
167
168
169
170
171
172
173
174
175
176
177
178
179
180
181
182
183
184
185
186
187
188
189
190
191
192
193
194
195
196
197
198
199
200
201
202
203
204
205
206
207
208
209
210
211
212
213
214
215
216
217
218
219
220
221
222
223
224
225
226
227
228
229
230
231
232
233
234
235
236

