%nproc=8
%mem=1000MB
# rb3lyp/6-311+g** NMR geom=connectivity

Title

0 1
C    -4.0500558   -0.5771862    0.8136712
H    -5.0263804   -1.0082727    1.0024760
C    -3.9381552    0.6617804    0.2400876
H    -4.8252424    1.2338890   -0.0111295
C    -2.6768410    1.2433246    0.0057578
C    -1.4974121    0.5051527    0.2848253
C    -1.6508332   -0.7338728    0.9404026
H    -0.7713646   -1.2730967    1.2633753
C    -2.8898548   -1.2624035    1.1994307
H    -2.9683706   -2.2124563    1.7152676
C    -2.5773185    2.5963696   -0.4192930
H    -3.4870728    3.1412239   -0.6474055
C    -1.3741895    3.2147896   -0.4364030
H    -1.2997315    4.2742019   -0.6578144
C    -0.1719488    2.4994090   -0.1734588
C    -0.2043917    1.1018437    0.0192689
C     1.0513491    3.2042560   -0.0676222
H     1.0427344    4.2819499   -0.1896997
C     2.1942091    2.5487446    0.2579577
H     3.1168527    3.0912848    0.4334727
C     2.2216473    1.1336562    0.2934990
C     1.0486931    0.3945528    0.0302412
C     3.4483363    0.4614633    0.5573939
H     4.3095794    1.0606054    0.8334846
C     3.5427346   -0.8855926    0.4749463
H     4.4731467   -1.3939704    0.7038822
C     2.4490052   -1.6474447   -0.0196319
C     1.2150704   -1.0057258   -0.3013573
C     0.2531113   -1.7434440   -1.0216591
H    -0.6541356   -1.2535051   -1.3462847
C     0.4494193   -3.0628597   -1.3413779
H    -0.3083162   -3.5944309   -1.9054060
C     1.6251726   -3.7207967   -0.9552541
H     1.7670048   -4.7687404   -1.1927019
C     2.6109872   -3.0144177   -0.3183050
H     3.5525612   -3.4902813   -0.0646367
Bq         2.7149894036    -3.6188902086    -0.4577124606
Bq         2.7094861669    -3.5706937172    -0.4455958354
Bq         2.7039829302    -3.5224972259    -0.4334792101
Bq         2.6984796935    -3.4743007345    -0.4213625849
Bq         2.6929764568    -3.4261042432    -0.4092459597
Bq         2.6874732202    -3.3779077518    -0.3971293345
Bq         2.6819699835    -3.3297112605    -0.3850127092
Bq         2.6764667468    -3.2815147691    -0.3728960840
Bq         2.6709635101    -3.2333182777    -0.3607794588
Bq         2.6654602734    -3.1851217864    -0.3486628335
Bq         2.6599570367    -3.1369252950    -0.3365462083
Bq         2.6544538000    -3.0887288037    -0.3244295831
Bq         2.6489505634    -3.0405323123    -0.3123129579
Bq         2.6434473267    -2.9923358210    -0.3001963326
Bq         2.6379440900    -2.9441393296    -0.2880797074
Bq         2.6324408533    -2.8959428383    -0.2759630822
Bq         2.6269376166    -2.8477463469    -0.2638464569
Bq         2.6214343799    -2.7995498555    -0.2517298317
Bq         2.6159311432    -2.7513533642    -0.2396132065
Bq         2.6104279066    -2.7031568728    -0.2274965812
Bq         2.6049246699    -2.6549603815    -0.2153799560
Bq         2.5994214332    -2.6067638901    -0.2032633308
Bq         2.5939181965    -2.5585673988    -0.1911467056
Bq         2.5884149598    -2.5103709074    -0.1790300803
Bq         2.5829117231    -2.4621744160    -0.1669134551
Bq         2.5774084864    -2.4139779247    -0.1547968299
Bq         2.5719052498    -2.3657814333    -0.1426802046
Bq         2.5664020131    -2.3175849420    -0.1305635794
Bq         2.5608987764    -2.2693884506    -0.1184469542
Bq         2.5553955397    -2.2211919593    -0.1063303290
Bq         2.5498923030    -2.1729954679    -0.0942137037
Bq         2.5443890663    -2.1247989766    -0.0820970785
Bq         2.5388858296    -2.0766024852    -0.0699804533
Bq         2.5333825929    -2.0284059938    -0.0578638280
Bq         2.5278793563    -1.9802095025    -0.0457472028
Bq         2.5223761196    -1.9320130111    -0.0336305776
Bq         2.5168728829    -1.8838165198    -0.0215139524
Bq         2.5113696462    -1.8356200284    -0.0093973271
Bq         2.5058664095    -1.7874235371     0.0027192981
Bq         2.5003631728    -1.7392270457     0.0148359233
Bq         2.4948599361    -1.6910305543     0.0269525486
Bq         2.4893566995    -1.6428340630     0.0390691738
Bq         2.4838534628    -1.5946375716     0.0511857990
Bq         2.4783502261    -1.5464410803     0.0633024242
Bq         2.4728469894    -1.4982445889     0.0754190495
Bq         2.4673437527    -1.4500480976     0.0875356747
Bq         2.4618405160    -1.4018516062     0.0996522999
Bq         2.4563372793    -1.3536551149     0.1117689252
Bq         2.4508340427    -1.3054586235     0.1238855504
Bq         2.4453308060    -1.2572621321     0.1360021756
Bq         2.4398275693    -1.2090656408     0.1481188009
Bq         2.4343243326    -1.1608691494     0.1602354261
Bq         2.4288210959    -1.1126726581     0.1723520513
Bq         2.4233178592    -1.0644761667     0.1844686765
Bq         2.4178146225    -1.0162796754     0.1965853018
Bq         2.4123113859    -0.9680831840     0.2087019270
Bq         2.4068081492    -0.9198866927     0.2208185522
Bq         2.4013049125    -0.8716902013     0.2329351775
Bq         2.3958016758    -0.8234937099     0.2450518027
Bq         2.3902984391    -0.7752972186     0.2571684279
Bq         2.3847952024    -0.7271007272     0.2692850531
Bq         2.3792919657    -0.6789042359     0.2814016784
Bq         2.3737887291    -0.6307077445     0.2935183036
Bq         2.3682854924    -0.5825112532     0.3056349288
Bq         2.3627822557    -0.5343147618     0.3177515541
Bq         2.3572790190    -0.4861182704     0.3298681793
Bq         2.3517757823    -0.4379217791     0.3419848045
Bq         2.3462725456    -0.3897252877     0.3541014297
Bq         2.3407693089    -0.3415287964     0.3662180550
Bq         2.3352660723    -0.2933323050     0.3783346802
Bq         2.3297628356    -0.2451358137     0.3904513054
Bq         2.3242595989    -0.1969393223     0.4025679307
Bq         2.3187563622    -0.1487428310     0.4146845559
Bq         2.3132531255    -0.1005463396     0.4268011811
Bq         2.3077498888    -0.0523498482     0.4389178063
Bq         2.3022466521    -0.0041533569     0.4510344316
Bq         2.2967434154     0.0440431345     0.4631510568
Bq         2.8925915207    -4.7756060011    -0.7278347723
Bq         2.8870882840    -4.7274095098    -0.7157181471
Bq         2.8815850473    -4.6792130184    -0.7036015218
Bq         2.8760818107    -4.6310165271    -0.6914848966
Bq         2.8705785740    -4.5828200357    -0.6793682714
Bq         2.8650753373    -4.5346235444    -0.6672516461
Bq         2.8595721006    -4.4864270530    -0.6551350209
Bq         2.8540688639    -4.4382305616    -0.6430183957
Bq         2.8485656272    -4.3900340703    -0.6309017704
Bq         2.8430623905    -4.3418375789    -0.6187851452
Bq         2.8375591539    -4.2936410876    -0.6066685200
Bq         2.8320559172    -4.2454445962    -0.5945518948
Bq         2.8265526805    -4.1972481049    -0.5824352695
Bq         2.8210494438    -4.1490516135    -0.5703186443
Bq         2.8155462071    -4.1008551222    -0.5582020191
Bq         2.8100429704    -4.0526586308    -0.5460853938
Bq         2.8045397337    -4.0044621394    -0.5339687686
Bq         2.7990364970    -3.9562656481    -0.5218521434
Bq         2.7935332604    -3.9080691567    -0.5097355182
Bq         2.7880300237    -3.8598726654    -0.4976188929
Bq         2.7825267870    -3.8116761740    -0.4855022677
Bq         2.7770235503    -3.7634796827    -0.4733856425
Bq         2.7715203136    -3.7152831913    -0.4612690172
Bq         2.7660170769    -3.6670866999    -0.4491523920
Bq         2.7605138402    -3.6188902086    -0.4370357668
Bq         2.7550106036    -3.5706937172    -0.4249191416
Bq         2.7495073669    -3.5224972259    -0.4128025163
Bq         2.7440041302    -3.4743007345    -0.4006858911
Bq         2.7385008935    -3.4261042432    -0.3885692659
Bq         2.7329976568    -3.3779077518    -0.3764526406
Bq         2.7274944201    -3.3297112605    -0.3643360154
Bq         2.7219911834    -3.2815147691    -0.3522193902
Bq         2.7164879468    -3.2333182777    -0.3401027650
Bq         2.7109847101    -3.1851217864    -0.3279861397
Bq         2.7054814734    -3.1369252950    -0.3158695145
Bq         2.6999782367    -3.0887288037    -0.3037528893
Bq         2.6944750000    -3.0405323123    -0.2916362640
Bq         2.6889717633    -2.9923358210    -0.2795196388
Bq         2.6834685266    -2.9441393296    -0.2674030136
Bq         2.6779652900    -2.8959428383    -0.2552863884
Bq         2.6724620533    -2.8477463469    -0.2431697631
Bq         2.6669588166    -2.7995498555    -0.2310531379
Bq         2.6614555799    -2.7513533642    -0.2189365127
Bq         2.6559523432    -2.7031568728    -0.2068198874
Bq         2.6504491065    -2.6549603815    -0.1947032622
Bq         2.6449458698    -2.6067638901    -0.1825866370
Bq         2.6394426332    -2.5585673988    -0.1704700117
Bq         2.6339393965    -2.5103709074    -0.1583533865
Bq         2.6284361598    -2.4621744160    -0.1462367613
Bq         2.6229329231    -2.4139779247    -0.1341201361
Bq         2.6174296864    -2.3657814333    -0.1220035108
Bq         2.6119264497    -2.3175849420    -0.1098868856
Bq         2.6064232130    -2.2693884506    -0.0977702604
Bq         2.6009199764    -2.2211919593    -0.0856536351
Bq         2.5954167397    -2.1729954679    -0.0735370099
Bq         2.5899135030    -2.1247989766    -0.0614203847
Bq         2.5844102663    -2.0766024852    -0.0493037595
Bq         2.5789070296    -2.0284059938    -0.0371871342
Bq         2.5734037929    -1.9802095025    -0.0250705090
Bq         2.5679005562    -1.9320130111    -0.0129538838
Bq         2.5623973195    -1.8838165198    -0.0008372585
Bq         2.5568940829    -1.8356200284     0.0112793667
Bq         2.5513908462    -1.7874235371     0.0233959919
Bq         2.5458876095    -1.7392270457     0.0355126171
Bq         2.5403843728    -1.6910305543     0.0476292424
Bq         2.5348811361    -1.6428340630     0.0597458676
Bq         2.5293778994    -1.5946375716     0.0718624928
Bq         2.5238746627    -1.5464410803     0.0839791181
Bq         2.5183714261    -1.4982445889     0.0960957433
Bq         2.5128681894    -1.4500480976     0.1082123685
Bq         2.5073649527    -1.4018516062     0.1203289937
Bq         2.5018617160    -1.3536551149     0.1324456190
Bq         2.4963584793    -1.3054586235     0.1445622442
Bq         2.4908552426    -1.2572621321     0.1566788694
Bq         2.4853520059    -1.2090656408     0.1687954947
Bq         2.4798487693    -1.1608691494     0.1809121199
Bq         2.4743455326    -1.1126726581     0.1930287451
Bq         2.4688422959    -1.0644761667     0.2051453704
Bq         2.4633390592    -1.0162796754     0.2172619956
Bq         2.4578358225    -0.9680831840     0.2293786208
Bq         2.4523325858    -0.9198866927     0.2414952460
Bq         2.4468293491    -0.8716902013     0.2536118713
Bq         2.4413261125    -0.8234937099     0.2657284965
Bq         2.4358228758    -0.7752972186     0.2778451217
Bq         2.4303196391    -0.7271007272     0.2899617470
Bq         2.4248164024    -0.6789042359     0.3020783722
Bq         2.4193131657    -0.6307077445     0.3141949974
Bq         2.4138099290    -0.5825112532     0.3263116226
Bq         2.4083066923    -0.5343147618     0.3384282479
Bq         2.4028034557    -0.4861182704     0.3505448731
Bq         2.3973002190    -0.4379217791     0.3626614983
Bq         2.3917969823    -0.3897252877     0.3747781236
Bq         2.3862937456    -0.3415287964     0.3868947488
Bq         2.3807905089    -0.2933323050     0.3990113740
Bq         2.3752872722    -0.2451358137     0.4111279992
Bq         2.3697840355    -0.1969393223     0.4232446245
Bq         2.3642807989    -0.1487428310     0.4353612497
Bq         2.3587775622    -0.1005463396     0.4474778749
Bq         2.3532743255    -0.0523498482     0.4595945002
Bq         2.3477710888    -0.0041533569     0.4717111254
Bq         2.3422678521     0.0440431345     0.4838277506
Bq         2.9381159574    -4.7756060011    -0.7071580785
Bq         2.9326127207    -4.7274095098    -0.6950414532
Bq         2.9271094840    -4.6792130184    -0.6829248280
Bq         2.9216062473    -4.6310165271    -0.6708082028
Bq         2.9161030106    -4.5828200357    -0.6586915776
Bq         2.9105997739    -4.5346235444    -0.6465749523
Bq         2.9050965373    -4.4864270530    -0.6344583271
Bq         2.8995933006    -4.4382305616    -0.6223417019
Bq         2.8940900639    -4.3900340703    -0.6102250766
Bq         2.8885868272    -4.3418375789    -0.5981084514
Bq         2.8830835905    -4.2936410876    -0.5859918262
Bq         2.8775803538    -4.2454445962    -0.5738752009
Bq         2.8720771171    -4.1972481049    -0.5617585757
Bq         2.8665738804    -4.1490516135    -0.5496419505
Bq         2.8610706438    -4.1008551222    -0.5375253253
Bq         2.8555674071    -4.0526586308    -0.5254087000
Bq         2.8500641704    -4.0044621394    -0.5132920748
Bq         2.8445609337    -3.9562656481    -0.5011754496
Bq         2.8390576970    -3.9080691567    -0.4890588243
Bq         2.8335544603    -3.8598726654    -0.4769421991
Bq         2.8280512236    -3.8116761740    -0.4648255739
Bq         2.8225479870    -3.7634796827    -0.4527089487

1
2
3
4
5
6
7
8
9
10
11
12
13
14
15
16
17
18
19
20
21
22
23
24
25
26
27
28
29
30
31
32
33
34
35
36
37
38
39
40
41
42
43
44
45
46
47
48
49
50
51
52
53
54
55
56
57
58
59
60
61
62
63
64
65
66
67
68
69
70
71
72
73
74
75
76
77
78
79
80
81
82
83
84
85
86
87
88
89
90
91
92
93
94
95
96
97
98
99
100
101
102
103
104
105
106
107
108
109
110
111
112
113
114
115
116
117
118
119
120
121
122
123
124
125
126
127
128
129
130
131
132
133
134
135
136
137
138
139
140
141
142
143
144
145
146
147
148
149
150
151
152
153
154
155
156
157
158
159
160
161
162
163
164
165
166
167
168
169
170
171
172
173
174
175
176
177
178
179
180
181
182
183
184
185
186
187
188
189
190
191
192
193
194
195
196
197
198
199
200
201
202
203
204
205
206
207
208
209
210
211
212
213
214
215
216
217
218
219
220
221
222
223
224
225
226
227
228
229
230
231
232
233
234
235
236

