%nproc=8
%mem=1000MB
# rb3lyp/6-311+g** NMR geom=connectivity

Title

0 1
C    -4.0500558   -0.5771862    0.8136712
H    -5.0263804   -1.0082727    1.0024760
C    -3.9381552    0.6617804    0.2400876
H    -4.8252424    1.2338890   -0.0111295
C    -2.6768410    1.2433246    0.0057578
C    -1.4974121    0.5051527    0.2848253
C    -1.6508332   -0.7338728    0.9404026
H    -0.7713646   -1.2730967    1.2633753
C    -2.8898548   -1.2624035    1.1994307
H    -2.9683706   -2.2124563    1.7152676
C    -2.5773185    2.5963696   -0.4192930
H    -3.4870728    3.1412239   -0.6474055
C    -1.3741895    3.2147896   -0.4364030
H    -1.2997315    4.2742019   -0.6578144
C    -0.1719488    2.4994090   -0.1734588
C    -0.2043917    1.1018437    0.0192689
C     1.0513491    3.2042560   -0.0676222
H     1.0427344    4.2819499   -0.1896997
C     2.1942091    2.5487446    0.2579577
H     3.1168527    3.0912848    0.4334727
C     2.2216473    1.1336562    0.2934990
C     1.0486931    0.3945528    0.0302412
C     3.4483363    0.4614633    0.5573939
H     4.3095794    1.0606054    0.8334846
C     3.5427346   -0.8855926    0.4749463
H     4.4731467   -1.3939704    0.7038822
C     2.4490052   -1.6474447   -0.0196319
C     1.2150704   -1.0057258   -0.3013573
C     0.2531113   -1.7434440   -1.0216591
H    -0.6541356   -1.2535051   -1.3462847
C     0.4494193   -3.0628597   -1.3413779
H    -0.3083162   -3.5944309   -1.9054060
C     1.6251726   -3.7207967   -0.9552541
H     1.7670048   -4.7687404   -1.1927019
C     2.6109872   -3.0144177   -0.3183050
H     3.5525612   -3.4902813   -0.0646367
Bq         0.6738824699    -1.6910305543    -0.8001152040
Bq         0.6683792332    -1.6428340630    -0.7879985788
Bq         0.6628759965    -1.5946375716    -0.7758819535
Bq         0.6573727598    -1.5464410803    -0.7637653283
Bq         0.6518695231    -1.4982445889    -0.7516487031
Bq         0.6463662864    -1.4500480976    -0.7395320779
Bq         0.6408630498    -1.4018516062    -0.7274154526
Bq         0.6353598131    -1.3536551149    -0.7152988274
Bq         0.6298565764    -1.3054586235    -0.7031822022
Bq         0.6243533397    -1.2572621321    -0.6910655769
Bq         0.6188501030    -1.2090656408    -0.6789489517
Bq         0.6133468663    -1.1608691494    -0.6668323265
Bq         0.6078436296    -1.1126726581    -0.6547157013
Bq         0.6023403930    -1.0644761667    -0.6425990760
Bq         0.5968371563    -1.0162796754    -0.6304824508
Bq         0.5913339196    -0.9680831840    -0.6183658256
Bq         0.5858306829    -0.9198866927    -0.6062492003
Bq         0.5803274462    -0.8716902013    -0.5941325751
Bq         0.5748242095    -0.8234937099    -0.5820159499
Bq         0.5693209728    -0.7752972186    -0.5698993247
Bq         0.5638177362    -0.7271007272    -0.5577826994
Bq         0.5583144995    -0.6789042359    -0.5456660742
Bq         0.5528112628    -0.6307077445    -0.5335494490
Bq         0.5473080261    -0.5825112532    -0.5214328237
Bq         0.5418047894    -0.5343147618    -0.5093161985
Bq         0.5363015527    -0.4861182704    -0.4971995733
Bq         0.5307983160    -0.4379217791    -0.4850829481
Bq         0.5252950794    -0.3897252877    -0.4729663228
Bq         0.5197918427    -0.3415287964    -0.4608496976
Bq         0.5142886060    -0.2933323050    -0.4487330724
Bq         0.5087853693    -0.2451358137    -0.4366164471
Bq         0.5032821326    -0.1969393223    -0.4244998219
Bq         0.4977788959    -0.1487428310    -0.4123831967
Bq         0.4922756592    -0.1005463396    -0.4002665714
Bq         0.4867724226    -0.0523498482    -0.3881499462
Bq         0.4812691859    -0.0041533569    -0.3760333210
Bq         0.4757659492     0.0440431345    -0.3639166958
Bq         1.0716140544    -4.7756060011    -1.5549025248
Bq         1.0661108178    -4.7274095098    -1.5427858996
Bq         1.0606075811    -4.6792130184    -1.5306692744
Bq         1.0551043444    -4.6310165271    -1.5185526492
Bq         1.0496011077    -4.5828200357    -1.5064360239
Bq         1.0440978710    -4.5346235444    -1.4943193987
Bq         1.0385946343    -4.4864270530    -1.4822027735
Bq         1.0330913976    -4.4382305616    -1.4700861482
Bq         1.0275881610    -4.3900340703    -1.4579695230
Bq         1.0220849243    -4.3418375789    -1.4458528978
Bq         1.0165816876    -4.2936410876    -1.4337362726
Bq         1.0110784509    -4.2454445962    -1.4216196473
Bq         1.0055752142    -4.1972481049    -1.4095030221
Bq         1.0000719775    -4.1490516135    -1.3973863969
Bq         0.9945687408    -4.1008551222    -1.3852697716
Bq         0.9890655042    -4.0526586308    -1.3731531464
Bq         0.9835622675    -4.0044621394    -1.3610365212
Bq         0.9780590308    -3.9562656481    -1.3489198960
Bq         0.9725557941    -3.9080691567    -1.3368032707
Bq         0.9670525574    -3.8598726654    -1.3246866455
Bq         0.9615493207    -3.8116761740    -1.3125700203
Bq         0.9560460840    -3.7634796827    -1.3004533950
Bq         0.9505428473    -3.7152831913    -1.2883367698
Bq         0.9450396107    -3.6670866999    -1.2762201446
Bq         0.9395363740    -3.6188902086    -1.2641035194
Bq         0.9340331373    -3.5706937172    -1.2519868941
Bq         0.9285299006    -3.5224972259    -1.2398702689
Bq         0.9230266639    -3.4743007345    -1.2277536437
Bq         0.9175234272    -3.4261042432    -1.2156370184
Bq         0.9120201905    -3.3779077518    -1.2035203932
Bq         0.9065169539    -3.3297112605    -1.1914037680
Bq         0.9010137172    -3.2815147691    -1.1792871427
Bq         0.8955104805    -3.2333182777    -1.1671705175
Bq         0.8900072438    -3.1851217864    -1.1550538923
Bq         0.8845040071    -3.1369252950    -1.1429372671
Bq         0.8790007704    -3.0887288037    -1.1308206418
Bq         0.8734975337    -3.0405323123    -1.1187040166
Bq         0.8679942971    -2.9923358210    -1.1065873914
Bq         0.8624910604    -2.9441393296    -1.0944707661
Bq         0.8569878237    -2.8959428383    -1.0823541409
Bq         0.8514845870    -2.8477463469    -1.0702375157
Bq         0.8459813503    -2.7995498555    -1.0581208905
Bq         0.8404781136    -2.7513533642    -1.0460042652
Bq         0.8349748769    -2.7031568728    -1.0338876400
Bq         0.8294716403    -2.6549603815    -1.0217710148
Bq         0.8239684036    -2.6067638901    -1.0096543895
Bq         0.8184651669    -2.5585673988    -0.9975377643
Bq         0.8129619302    -2.5103709074    -0.9854211391
Bq         0.8074586935    -2.4621744160    -0.9733045139
Bq         0.8019554568    -2.4139779247    -0.9611878886
Bq         0.7964522201    -2.3657814333    -0.9490712634
Bq         0.7909489835    -2.3175849420    -0.9369546382
Bq         0.7854457468    -2.2693884506    -0.9248380129
Bq         0.7799425101    -2.2211919593    -0.9127213877
Bq         0.7744392734    -2.1729954679    -0.9006047625
Bq         0.7689360367    -2.1247989766    -0.8884881373
Bq         0.7634328000    -2.0766024852    -0.8763715120
Bq         0.7579295633    -2.0284059938    -0.8642548868
Bq         0.7524263267    -1.9802095025    -0.8521382616
Bq         0.7469230900    -1.9320130111    -0.8400216363
Bq         0.7414198533    -1.8838165198    -0.8279050111
Bq         0.7359166166    -1.8356200284    -0.8157883859
Bq         0.7304133799    -1.7874235371    -0.8036717607
Bq         0.7249101432    -1.7392270457    -0.7915551354
Bq         0.7194069065    -1.6910305543    -0.7794385102
Bq         0.7139036698    -1.6428340630    -0.7673218850
Bq         0.7084004332    -1.5946375716    -0.7552052597
Bq         0.7028971965    -1.5464410803    -0.7430886345
Bq         0.6973939598    -1.4982445889    -0.7309720093
Bq         0.6918907231    -1.4500480976    -0.7188553840
Bq         0.6863874864    -1.4018516062    -0.7067387588
Bq         0.6808842497    -1.3536551149    -0.6946221336
Bq         0.6753810130    -1.3054586235    -0.6825055084
Bq         0.6698777764    -1.2572621321    -0.6703888831
Bq         0.6643745397    -1.2090656408    -0.6582722579
Bq         0.6588713030    -1.1608691494    -0.6461556327
Bq         0.6533680663    -1.1126726581    -0.6340390074
Bq         0.6478648296    -1.0644761667    -0.6219223822
Bq         0.6423615929    -1.0162796754    -0.6098057570
Bq         0.6368583562    -0.9680831840    -0.5976891318
Bq         0.6313551196    -0.9198866927    -0.5855725065
Bq         0.6258518829    -0.8716902013    -0.5734558813
Bq         0.6203486462    -0.8234937099    -0.5613392561
Bq         0.6148454095    -0.7752972186    -0.5492226308
Bq         0.6093421728    -0.7271007272    -0.5371060056
Bq         0.6038389361    -0.6789042359    -0.5249893804
Bq         0.5983356994    -0.6307077445    -0.5128727552
Bq         0.5928324628    -0.5825112532    -0.5007561299
Bq         0.5873292261    -0.5343147618    -0.4886395047
Bq         0.5818259894    -0.4861182704    -0.4765228795
Bq         0.5763227527    -0.4379217791    -0.4644062542
Bq         0.5708195160    -0.3897252877    -0.4522896290
Bq         0.5653162793    -0.3415287964    -0.4401730038
Bq         0.5598130426    -0.2933323050    -0.4280563786
Bq         0.5543098060    -0.2451358137    -0.4159397533
Bq         0.5488065693    -0.1969393223    -0.4038231281
Bq         0.5433033326    -0.1487428310    -0.3917065029
Bq         0.5378000959    -0.1005463396    -0.3795898776
Bq         0.5322968592    -0.0523498482    -0.3674732524
Bq         0.5267936225    -0.0041533569    -0.3553566272
Bq         0.5212903858     0.0440431345    -0.3432400019
Bq         1.1171384911    -4.7756060011    -1.5342258310
Bq         1.1116352544    -4.7274095098    -1.5221092058
Bq         1.1061320177    -4.6792130184    -1.5099925806
Bq         1.1006287810    -4.6310165271    -1.4978759553
Bq         1.0951255444    -4.5828200357    -1.4857593301
Bq         1.0896223077    -4.5346235444    -1.4736427049
Bq         1.0841190710    -4.4864270530    -1.4615260797
Bq         1.0786158343    -4.4382305616    -1.4494094544
Bq         1.0731125976    -4.3900340703    -1.4372928292
Bq         1.0676093609    -4.3418375789    -1.4251762040
Bq         1.0621061242    -4.2936410876    -1.4130595787
Bq         1.0566028876    -4.2454445962    -1.4009429535
Bq         1.0510996509    -4.1972481049    -1.3888263283
Bq         1.0455964142    -4.1490516135    -1.3767097031
Bq         1.0400931775    -4.1008551222    -1.3645930778
Bq         1.0345899408    -4.0526586308    -1.3524764526
Bq         1.0290867041    -4.0044621394    -1.3403598274
Bq         1.0235834674    -3.9562656481    -1.3282432021
Bq         1.0180802307    -3.9080691567    -1.3161265769
Bq         1.0125769941    -3.8598726654    -1.3040099517
Bq         1.0070737574    -3.8116761740    -1.2918933265
Bq         1.0015705207    -3.7634796827    -1.2797767012
Bq         0.9960672840    -3.7152831913    -1.2676600760
Bq         0.9905640473    -3.6670866999    -1.2555434508
Bq         0.9850608106    -3.6188902086    -1.2434268255
Bq         0.9795575739    -3.5706937172    -1.2313102003
Bq         0.9740543373    -3.5224972259    -1.2191935751
Bq         0.9685511006    -3.4743007345    -1.2070769499
Bq         0.9630478639    -3.4261042432    -1.1949603246
Bq         0.9575446272    -3.3779077518    -1.1828436994
Bq         0.9520413905    -3.3297112605    -1.1707270742
Bq         0.9465381538    -3.2815147691    -1.1586104489
Bq         0.9410349171    -3.2333182777    -1.1464938237
Bq         0.9355316805    -3.1851217864    -1.1343771985
Bq         0.9300284438    -3.1369252950    -1.1222605732
Bq         0.9245252071    -3.0887288037    -1.1101439480
Bq         0.9190219704    -3.0405323123    -1.0980273228
Bq         0.9135187337    -2.9923358210    -1.0859106976
Bq         0.9080154970    -2.9441393296    -1.0737940723
Bq         0.9025122603    -2.8959428383    -1.0616774471
Bq         0.8970090237    -2.8477463469    -1.0495608219
Bq         0.8915057870    -2.7995498555    -1.0374441966
Bq         0.8860025503    -2.7513533642    -1.0253275714
Bq         0.8804993136    -2.7031568728    -1.0132109462
Bq         0.8749960769    -2.6549603815    -1.0010943210
Bq         0.8694928402    -2.6067638901    -0.9889776957
Bq         0.8639896035    -2.5585673988    -0.9768610705
Bq         0.8584863669    -2.5103709074    -0.9647444453
Bq         0.8529831302    -2.4621744160    -0.9526278200
Bq         0.8474798935    -2.4139779247    -0.9405111948
Bq         0.8419766568    -2.3657814333    -0.9283945696
Bq         0.8364734201    -2.3175849420    -0.9162779444
Bq         0.8309701834    -2.2693884506    -0.9041613191
Bq         0.8254669467    -2.2211919593    -0.8920446939
Bq         0.8199637101    -2.1729954679    -0.8799280687
Bq         0.8144604734    -2.1247989766    -0.8678114434
Bq         0.8089572367    -2.0766024852    -0.8556948182
Bq         0.8034540000    -2.0284059938    -0.8435781930
Bq         0.7979507633    -1.9802095025    -0.8314615678
Bq         0.7924475266    -1.9320130111    -0.8193449425
Bq         0.7869442899    -1.8838165198    -0.8072283173
Bq         0.7814410532    -1.8356200284    -0.7951116921

1
2
3
4
5
6
7
8
9
10
11
12
13
14
15
16
17
18
19
20
21
22
23
24
25
26
27
28
29
30
31
32
33
34
35
36
37
38
39
40
41
42
43
44
45
46
47
48
49
50
51
52
53
54
55
56
57
58
59
60
61
62
63
64
65
66
67
68
69
70
71
72
73
74
75
76
77
78
79
80
81
82
83
84
85
86
87
88
89
90
91
92
93
94
95
96
97
98
99
100
101
102
103
104
105
106
107
108
109
110
111
112
113
114
115
116
117
118
119
120
121
122
123
124
125
126
127
128
129
130
131
132
133
134
135
136
137
138
139
140
141
142
143
144
145
146
147
148
149
150
151
152
153
154
155
156
157
158
159
160
161
162
163
164
165
166
167
168
169
170
171
172
173
174
175
176
177
178
179
180
181
182
183
184
185
186
187
188
189
190
191
192
193
194
195
196
197
198
199
200
201
202
203
204
205
206
207
208
209
210
211
212
213
214
215
216
217
218
219
220
221
222
223
224
225
226
227
228
229
230
231
232
233
234
235
236

