%nproc=8
%mem=1000MB
# rb3lyp/6-311+g** NMR geom=connectivity

Title

0 1
C    -4.0500558   -0.5771862    0.8136712
H    -5.0263804   -1.0082727    1.0024760
C    -3.9381552    0.6617804    0.2400876
H    -4.8252424    1.2338890   -0.0111295
C    -2.6768410    1.2433246    0.0057578
C    -1.4974121    0.5051527    0.2848253
C    -1.6508332   -0.7338728    0.9404026
H    -0.7713646   -1.2730967    1.2633753
C    -2.8898548   -1.2624035    1.1994307
H    -2.9683706   -2.2124563    1.7152676
C    -2.5773185    2.5963696   -0.4192930
H    -3.4870728    3.1412239   -0.6474055
C    -1.3741895    3.2147896   -0.4364030
H    -1.2997315    4.2742019   -0.6578144
C    -0.1719488    2.4994090   -0.1734588
C    -0.2043917    1.1018437    0.0192689
C     1.0513491    3.2042560   -0.0676222
H     1.0427344    4.2819499   -0.1896997
C     2.1942091    2.5487446    0.2579577
H     3.1168527    3.0912848    0.4334727
C     2.2216473    1.1336562    0.2934990
C     1.0486931    0.3945528    0.0302412
C     3.4483363    0.4614633    0.5573939
H     4.3095794    1.0606054    0.8334846
C     3.5427346   -0.8855926    0.4749463
H     4.4731467   -1.3939704    0.7038822
C     2.4490052   -1.6474447   -0.0196319
C     1.2150704   -1.0057258   -0.3013573
C     0.2531113   -1.7434440   -1.0216591
H    -0.6541356   -1.2535051   -1.3462847
C     0.4494193   -3.0628597   -1.3413779
H    -0.3083162   -3.5944309   -1.9054060
C     1.6251726   -3.7207967   -0.9552541
H     1.7670048   -4.7687404   -1.1927019
C     2.6109872   -3.0144177   -0.3183050
H     3.5525612   -3.4902813   -0.0646367
Bq        -1.5659261269     1.9570880319    -0.1503587252
Bq        -1.5654396497     2.0055579479    -0.1626237399
Bq        -1.5649531726     2.0540278639    -0.1748887547
Bq        -1.5644666955     2.1024977798    -0.1871537694
Bq        -1.5639802184     2.1509676958    -0.1994187841
Bq        -1.5634937413     2.1994376118    -0.2116837988
Bq        -1.5630072642     2.2479075278    -0.2239488135
Bq        -1.5625207871     2.2963774437    -0.2362138282
Bq        -1.5620343100     2.3448473597    -0.2484788429
Bq        -1.5615478328     2.3933172757    -0.2607438576
Bq        -1.5610613557     2.4417871916    -0.2730088724
Bq        -1.5605748786     2.4902571076    -0.2852738871
Bq        -1.5600884015     2.5387270236    -0.2975389018
Bq        -1.5596019244     2.5871969395    -0.3098039165
Bq        -1.5591154473     2.6356668555    -0.3220689312
Bq        -1.5586289702     2.6841367715    -0.3343339459
Bq        -1.5581424931     2.7326066875    -0.3465989606
Bq        -1.5576560160     2.7810766034    -0.3588639754
Bq        -1.5571695388     2.8295465194    -0.3711289901
Bq        -1.5566830617     2.8780164354    -0.3833940048
Bq        -1.5561965846     2.9264863513    -0.3956590195
Bq        -1.5557101075     2.9749562673    -0.4079240342
Bq        -1.5552236304     3.0234261833    -0.4201890489
Bq        -1.5547371533     3.0718960992    -0.4324540636
Bq        -1.5542506762     3.1203660152    -0.4447190783
Bq        -1.5537641991     3.1688359312    -0.4569840931
Bq        -1.5532777219     3.2173058471    -0.4692491078
Bq        -1.5527912448     3.2657757631    -0.4815141225
Bq        -1.5523047677     3.3142456791    -0.4937791372
Bq        -1.5518182906     3.3627155951    -0.5060441519
Bq        -1.5513318135     3.4111855110    -0.5183091666
Bq        -1.5508453364     3.4596554270    -0.5305741813
Bq        -1.5503588593     3.5081253430    -0.5428391961
Bq        -1.5498723822     3.5565952589    -0.5551042108
Bq        -1.5493859050     3.6050651749    -0.5673692255
Bq        -1.5488994279     3.6535350909    -0.5796342402
Bq        -1.5484129508     3.7020050068    -0.5918992549
Bq        -1.5479264737     3.7504749228    -0.6041642696
Bq        -1.5474399966     3.7989448388    -0.6164292843
Bq        -1.5469535195     3.8474147548    -0.6286942991
Bq        -1.5464670424     3.8958846707    -0.6409593138
Bq        -1.5459805653     3.9443545867    -0.6532243285
Bq        -1.5454940881     3.9928245027    -0.6654893432
Bq        -1.5450076110     4.0412944186    -0.6777543579
Bq        -1.5445211339     4.0897643346    -0.6900193726
Bq        -1.5440346568     4.1382342506    -0.7022843873
Bq        -1.5435481797     4.1867041665    -0.7145494020
Bq        -1.5430617026     4.2351740825    -0.7268144168
Bq        -1.5425752255     4.2836439985    -0.7390794315
Bq        -1.5412622208    -0.5633475985     0.4894036718
Bq        -1.5407757437    -0.5148776825     0.4771386571
Bq        -1.5402892666    -0.4664077665     0.4648736424
Bq        -1.5398027894    -0.4179378506     0.4526086277
Bq        -1.5393163123    -0.3694679346     0.4403436130
Bq        -1.5388298352    -0.3209980186     0.4280785982
Bq        -1.5383433581    -0.2725281027     0.4158135835
Bq        -1.5378568810    -0.2240581867     0.4035485688
Bq        -1.5373704039    -0.1755882707     0.3912835541
Bq        -1.5368839268    -0.1271183548     0.3790185394
Bq        -1.5363974497    -0.0786484388     0.3667535247
Bq        -1.5359109725    -0.0301785228     0.3544885100
Bq        -1.5354244954     0.0182913932     0.3422234953
Bq        -1.5349380183     0.0667613091     0.3299584805
Bq        -1.5344515412     0.1152312251     0.3176934658
Bq        -1.5339650641     0.1637011411     0.3054284511
Bq        -1.5334785870     0.2121710570     0.2931634364
Bq        -1.5329921099     0.2606409730     0.2808984217
Bq        -1.5325056328     0.3091108890     0.2686334070
Bq        -1.5320191556     0.3575808049     0.2563683923
Bq        -1.5315326785     0.4060507209     0.2441033775
Bq        -1.5310462014     0.4545206369     0.2318383628
Bq        -1.5305597243     0.5029905529     0.2195733481
Bq        -1.5300732472     0.5514604688     0.2073083334
Bq        -1.5295867701     0.5999303848     0.1950433187
Bq        -1.5291002930     0.6484003008     0.1827783040
Bq        -1.5286138159     0.6968702167     0.1705132893
Bq        -1.5281273387     0.7453401327     0.1582482745
Bq        -1.5276408616     0.7938100487     0.1459832598
Bq        -1.5271543845     0.8422799646     0.1337182451
Bq        -1.5266679074     0.8907498806     0.1214532304
Bq        -1.5261814303     0.9392197966     0.1091882157
Bq        -1.5256949532     0.9876897125     0.0969232010
Bq        -1.5252084761     1.0361596285     0.0846581863
Bq        -1.5247219990     1.0846295445     0.0723931716
Bq        -1.5242355218     1.1330994605     0.0601281568
Bq        -1.5237490447     1.1815693764     0.0478631421
Bq        -1.5232625676     1.2300392924     0.0355981274
Bq        -1.5227760905     1.2785092084     0.0233331127
Bq        -1.5222896134     1.3269791243     0.0110680980
Bq        -1.5218031363     1.3754490403    -0.0011969167
Bq        -1.5213166592     1.4239189563    -0.0134619314
Bq        -1.5208301821     1.4723888722    -0.0257269462
Bq        -1.5203437050     1.5208587882    -0.0379919609
Bq        -1.5198572278     1.5693287042    -0.0502569756
Bq        -1.5193707507     1.6177986202    -0.0625219903
Bq        -1.5188842736     1.6662685361    -0.0747870050
Bq        -1.5183977965     1.7147384521    -0.0870520197
Bq        -1.5179113194     1.7632083681    -0.0993170344
Bq        -1.5174248423     1.8116782840    -0.1115820492
Bq        -1.5169383652     1.8601482000    -0.1238470639
Bq        -1.5164518881     1.9086181160    -0.1361120786
Bq        -1.5159654109     1.9570880319    -0.1483770933
Bq        -1.5154789338     2.0055579479    -0.1606421080
Bq        -1.5149924567     2.0540278639    -0.1729071227
Bq        -1.5145059796     2.1024977798    -0.1851721374
Bq        -1.5140195025     2.1509676958    -0.1974371521
Bq        -1.5135330254     2.1994376118    -0.2097021669
Bq        -1.5130465483     2.2479075278    -0.2219671816
Bq        -1.5125600712     2.2963774437    -0.2342321963
Bq        -1.5120735940     2.3448473597    -0.2464972110
Bq        -1.5115871169     2.3933172757    -0.2587622257
Bq        -1.5111006398     2.4417871916    -0.2710272404
Bq        -1.5106141627     2.4902571076    -0.2832922551
Bq        -1.5101276856     2.5387270236    -0.2955572699
Bq        -1.5096412085     2.5871969395    -0.3078222846
Bq        -1.5091547314     2.6356668555    -0.3200872993
Bq        -1.5086682543     2.6841367715    -0.3323523140
Bq        -1.5081817771     2.7326066875    -0.3446173287
Bq        -1.5076953000     2.7810766034    -0.3568823434
Bq        -1.5072088229     2.8295465194    -0.3691473581
Bq        -1.5067223458     2.8780164354    -0.3814123728
Bq        -1.5062358687     2.9264863513    -0.3936773876
Bq        -1.5057493916     2.9749562673    -0.4059424023
Bq        -1.5052629145     3.0234261833    -0.4182074170
Bq        -1.5047764374     3.0718960992    -0.4304724317
Bq        -1.5042899602     3.1203660152    -0.4427374464
Bq        -1.5038034831     3.1688359312    -0.4550024611
Bq        -1.5033170060     3.2173058471    -0.4672674758
Bq        -1.5028305289     3.2657757631    -0.4795324906
Bq        -1.5023440518     3.3142456791    -0.4917975053
Bq        -1.5018575747     3.3627155951    -0.5040625200
Bq        -1.5013710976     3.4111855110    -0.5163275347
Bq        -1.5008846205     3.4596554270    -0.5285925494
Bq        -1.5003981434     3.5081253430    -0.5408575641
Bq        -1.4999116662     3.5565952589    -0.5531225788
Bq        -1.4994251891     3.6050651749    -0.5653875936
Bq        -1.4989387120     3.6535350909    -0.5776526083
Bq        -1.4984522349     3.7020050068    -0.5899176230
Bq        -1.4979657578     3.7504749228    -0.6021826377
Bq        -1.4974792807     3.7989448388    -0.6144476524
Bq        -1.4969928036     3.8474147548    -0.6267126671
Bq        -1.4965063265     3.8958846707    -0.6389776818
Bq        -1.4960198493     3.9443545867    -0.6512426965
Bq        -1.4955333722     3.9928245027    -0.6635077113
Bq        -1.4950468951     4.0412944186    -0.6757727260
Bq        -1.4945604180     4.0897643346    -0.6880377407
Bq        -1.4940739409     4.1382342506    -0.7003027554
Bq        -1.4935874638     4.1867041665    -0.7125677701
Bq        -1.4931009867     4.2351740825    -0.7248327848
Bq        -1.4926145096     4.2836439985    -0.7370977995
Bq        -1.4913015049    -0.5633475985     0.4913853037
Bq        -1.4908150277    -0.5148776825     0.4791202890
Bq        -1.4903285506    -0.4664077665     0.4668552743
Bq        -1.4898420735    -0.4179378506     0.4545902596
Bq        -1.4893555964    -0.3694679346     0.4423252449
Bq        -1.4888691193    -0.3209980186     0.4300602302
Bq        -1.4883826422    -0.2725281027     0.4177952155
Bq        -1.4878961651    -0.2240581867     0.4055302008
Bq        -1.4874096880    -0.1755882707     0.3932651860
Bq        -1.4869232109    -0.1271183548     0.3810001713
Bq        -1.4864367337    -0.0786484388     0.3687351566
Bq        -1.4859502566    -0.0301785228     0.3564701419
Bq        -1.4854637795     0.0182913932     0.3442051272
Bq        -1.4849773024     0.0667613091     0.3319401125
Bq        -1.4844908253     0.1152312251     0.3196750978
Bq        -1.4840043482     0.1637011411     0.3074100830
Bq        -1.4835178711     0.2121710570     0.2951450683
Bq        -1.4830313940     0.2606409730     0.2828800536
Bq        -1.4825449168     0.3091108890     0.2706150389
Bq        -1.4820584397     0.3575808049     0.2583500242
Bq        -1.4815719626     0.4060507209     0.2460850095
Bq        -1.4810854855     0.4545206369     0.2338199948
Bq        -1.4805990084     0.5029905529     0.2215549800
Bq        -1.4801125313     0.5514604688     0.2092899653
Bq        -1.4796260542     0.5999303848     0.1970249506
Bq        -1.4791395771     0.6484003008     0.1847599359
Bq        -1.4786530999     0.6968702167     0.1724949212
Bq        -1.4781666228     0.7453401327     0.1602299065
Bq        -1.4776801457     0.7938100487     0.1479648918
Bq        -1.4771936686     0.8422799646     0.1356998771
Bq        -1.4767071915     0.8907498806     0.1234348623
Bq        -1.4762207144     0.9392197966     0.1111698476
Bq        -1.4757342373     0.9876897125     0.0989048329
Bq        -1.4752477602     1.0361596285     0.0866398182
Bq        -1.4747612830     1.0846295445     0.0743748035
Bq        -1.4742748059     1.1330994605     0.0621097888
Bq        -1.4737883288     1.1815693764     0.0498447741
Bq        -1.4733018517     1.2300392924     0.0375797593
Bq        -1.4728153746     1.2785092084     0.0253147446
Bq        -1.4723288975     1.3269791243     0.0130497299
Bq        -1.4718424204     1.3754490403     0.0007847152
Bq        -1.4713559433     1.4239189563    -0.0114802995
Bq        -1.4708694661     1.4723888722    -0.0237453142
Bq        -1.4703829890     1.5208587882    -0.0360103289
Bq        -1.4698965119     1.5693287042    -0.0482753437
Bq        -1.4694100348     1.6177986202    -0.0605403584
Bq        -1.4689235577     1.6662685361    -0.0728053731
Bq        -1.4684370806     1.7147384521    -0.0850703878
Bq        -1.4679506035     1.7632083681    -0.0973354025
Bq        -1.4674641264     1.8116782840    -0.1096004172

1
2
3
4
5
6
7
8
9
10
11
12
13
14
15
16
17
18
19
20
21
22
23
24
25
26
27
28
29
30
31
32
33
34
35
36
37
38
39
40
41
42
43
44
45
46
47
48
49
50
51
52
53
54
55
56
57
58
59
60
61
62
63
64
65
66
67
68
69
70
71
72
73
74
75
76
77
78
79
80
81
82
83
84
85
86
87
88
89
90
91
92
93
94
95
96
97
98
99
100
101
102
103
104
105
106
107
108
109
110
111
112
113
114
115
116
117
118
119
120
121
122
123
124
125
126
127
128
129
130
131
132
133
134
135
136
137
138
139
140
141
142
143
144
145
146
147
148
149
150
151
152
153
154
155
156
157
158
159
160
161
162
163
164
165
166
167
168
169
170
171
172
173
174
175
176
177
178
179
180
181
182
183
184
185
186
187
188
189
190
191
192
193
194
195
196
197
198
199
200
201
202
203
204
205
206
207
208
209
210
211
212
213
214
215
216
217
218
219
220
221
222
223
224
225
226
227
228
229
230
231
232
233
234
235
236

