%nproc=8
%mem=1000MB
# rb3lyp/6-311+g** NMR geom=connectivity

Title

0 1
C    -4.0500558   -0.5771862    0.8136712
H    -5.0263804   -1.0082727    1.0024760
C    -3.9381552    0.6617804    0.2400876
H    -4.8252424    1.2338890   -0.0111295
C    -2.6768410    1.2433246    0.0057578
C    -1.4974121    0.5051527    0.2848253
C    -1.6508332   -0.7338728    0.9404026
H    -0.7713646   -1.2730967    1.2633753
C    -2.8898548   -1.2624035    1.1994307
H    -2.9683706   -2.2124563    1.7152676
C    -2.5773185    2.5963696   -0.4192930
H    -3.4870728    3.1412239   -0.6474055
C    -1.3741895    3.2147896   -0.4364030
H    -1.2997315    4.2742019   -0.6578144
C    -0.1719488    2.4994090   -0.1734588
C    -0.2043917    1.1018437    0.0192689
C     1.0513491    3.2042560   -0.0676222
H     1.0427344    4.2819499   -0.1896997
C     2.1942091    2.5487446    0.2579577
H     3.1168527    3.0912848    0.4334727
C     2.2216473    1.1336562    0.2934990
C     1.0486931    0.3945528    0.0302412
C     3.4483363    0.4614633    0.5573939
H     4.3095794    1.0606054    0.8334846
C     3.5427346   -0.8855926    0.4749463
H     4.4731467   -1.3939704    0.7038822
C     2.4490052   -1.6474447   -0.0196319
C     1.2150704   -1.0057258   -0.3013573
C     0.2531113   -1.7434440   -1.0216591
H    -0.6541356   -1.2535051   -1.3462847
C     0.4494193   -3.0628597   -1.3413779
H    -0.3083162   -3.5944309   -1.9054060
C     1.6251726   -3.7207967   -0.9552541
H     1.7670048   -4.7687404   -1.1927019
C     2.6109872   -3.0144177   -0.3183050
H     3.5525612   -3.4902813   -0.0646367
Bq         1.6614115509     1.1145892090     0.1882196830
Bq         1.6617676179     1.1645288167     0.1857888806
Bq         1.6621236848     1.2144684244     0.1833580782
Bq         1.6624797518     1.2644080321     0.1809272758
Bq         1.6628358188     1.3143476398     0.1784964734
Bq         1.6631918858     1.3642872475     0.1760656711
Bq         1.6635479527     1.4142268552     0.1736348687
Bq         1.6639040197     1.4641664628     0.1712040663
Bq         1.6642600867     1.5141060705     0.1687732639
Bq         1.6646161536     1.5640456782     0.1663424615
Bq         1.6649722206     1.6139852859     0.1639116591
Bq         1.6653282876     1.6639248936     0.1614808568
Bq         1.6656843546     1.7138645013     0.1590500544
Bq         1.6660404215     1.7638041090     0.1566192520
Bq         1.6663964885     1.8137437167     0.1541884496
Bq         1.6667525555     1.8636833244     0.1517576472
Bq         1.6671086224     1.9136229320     0.1493268448
Bq         1.6674646894     1.9635625397     0.1468960425
Bq         1.6678207564     2.0135021474     0.1444652401
Bq         1.6681768234     2.0634417551     0.1420344377
Bq         1.6685328903     2.1133813628     0.1396036353
Bq         1.6688889573     2.1633209705     0.1371728329
Bq         1.6692450243     2.2132605782     0.1347420305
Bq         1.6696010912     2.2632001859     0.1323112282
Bq         1.6699571582     2.3131397936     0.1298804258
Bq         1.6703132252     2.3630794012     0.1274496234
Bq         1.6706692921     2.4130190089     0.1250188210
Bq         1.6710253591     2.4629586166     0.1225880186
Bq         1.6713814261     2.5128982243     0.1201572162
Bq         1.6717374931     2.5628378320     0.1177264139
Bq         1.6720935600     2.6127774397     0.1152956115
Bq         1.6724496270     2.6627170474     0.1128648091
Bq         1.6728056940     2.7126566551     0.1104340067
Bq         1.6731617609     2.7625962627     0.1080032043
Bq         1.6735178279     2.8125358704     0.1055724019
Bq         1.6738738949     2.8624754781     0.1031415996
Bq         1.6742299619     2.9124150858     0.1007107972
Bq         1.6745860288     2.9623546935     0.0982799948
Bq         1.6749420958     3.0122943012     0.0958491924
Bq         1.6752981628     3.0622339089     0.0934183900
Bq         1.6756542297     3.1121735166     0.0909875876
Bq         1.6760102967     3.1621131243     0.0885567853
Bq         1.6763663637     3.2120527319     0.0861259829
Bq         1.6767224307     3.2619923396     0.0836951805
Bq         1.6770784976     3.3119319473     0.0812643781
Bq         1.6774345646     3.3618715550     0.0788335757
Bq         1.6777906316     3.4118111627     0.0764027733
Bq         1.6781466985     3.4617507704     0.0739719710
Bq         1.6785027655     3.5116903781     0.0715411686
Bq         1.6788588325     3.5616299858     0.0691103662
Bq         1.6792148994     3.6115695935     0.0666795638
Bq         1.6795709664     3.6615092011     0.0642487614
Bq         1.6799270334     3.7114488088     0.0618179590
Bq         1.6802831004     3.7613884165     0.0593871567
Bq         1.6806391673     3.8113280242     0.0569563543
Bq         1.6809952343     3.8612676319     0.0545255519
Bq         1.6813513013     3.9112072396     0.0520947495
Bq         1.6817073682     3.9611468473     0.0496639471
Bq         1.6820634352     4.0110864550     0.0472331447
Bq         1.6824195022     4.0610260627     0.0448023424
Bq         1.6827755692     4.1109656703     0.0423715400
Bq         1.6831316361     4.1609052780     0.0399407376
Bq         1.6834877031     4.2108448857     0.0375099352
Bq         1.6838437701     4.2607844934     0.0350791328
Bq         1.6841998370     4.3107241011     0.0326483304
Bq         1.6980652019    -0.6832366678     0.2829752982
Bq         1.6984212689    -0.6332970601     0.2805444958
Bq         1.6987773358    -0.5833574524     0.2781136935
Bq         1.6991334028    -0.5334178447     0.2756828911
Bq         1.6994894698    -0.4834782370     0.2732520887
Bq         1.6998455367    -0.4335386293     0.2708212863
Bq         1.7002016037    -0.3835990216     0.2683904839
Bq         1.7005576707    -0.3336594139     0.2659596815
Bq         1.7009137377    -0.2837198063     0.2635288792
Bq         1.7012698046    -0.2337801986     0.2610980768
Bq         1.7016258716    -0.1838405909     0.2586672744
Bq         1.7019819386    -0.1339009832     0.2562364720
Bq         1.7023380055    -0.0839613755     0.2538056696
Bq         1.7026940725    -0.0340217678     0.2513748672
Bq         1.7030501395     0.0159178399     0.2489440649
Bq         1.7034062065     0.0658574476     0.2465132625
Bq         1.7037622734     0.1157970553     0.2440824601
Bq         1.7041183404     0.1657366629     0.2416516577
Bq         1.7044744074     0.2156762706     0.2392208553
Bq         1.7048304743     0.2656158783     0.2367900529
Bq         1.7051865413     0.3155554860     0.2343592506
Bq         1.7055426083     0.3654950937     0.2319284482
Bq         1.7058986753     0.4154347014     0.2294976458
Bq         1.7062547422     0.4653743091     0.2270668434
Bq         1.7066108092     0.5153139168     0.2246360410
Bq         1.7069668762     0.5652535245     0.2222052386
Bq         1.7073229431     0.6151931321     0.2197744363
Bq         1.7076790101     0.6651327398     0.2173436339
Bq         1.7080350771     0.7150723475     0.2149128315
Bq         1.7083911440     0.7650119552     0.2124820291
Bq         1.7087472110     0.8149515629     0.2100512267
Bq         1.7091032780     0.8648911706     0.2076204243
Bq         1.7094593450     0.9148307783     0.2051896220
Bq         1.7098154119     0.9647703860     0.2027588196
Bq         1.7101714789     1.0147099936     0.2003280172
Bq         1.7105275459     1.0646496013     0.1978972148
Bq         1.7108836128     1.1145892090     0.1954664124
Bq         1.7112396798     1.1645288167     0.1930356100
Bq         1.7115957468     1.2144684244     0.1906048077
Bq         1.7119518138     1.2644080321     0.1881740053
Bq         1.7123078807     1.3143476398     0.1857432029
Bq         1.7126639477     1.3642872475     0.1833124005
Bq         1.7130200147     1.4142268552     0.1808815981
Bq         1.7133760816     1.4641664628     0.1784507957
Bq         1.7137321486     1.5141060705     0.1760199934
Bq         1.7140882156     1.5640456782     0.1735891910
Bq         1.7144442826     1.6139852859     0.1711583886
Bq         1.7148003495     1.6639248936     0.1687275862
Bq         1.7151564165     1.7138645013     0.1662967838
Bq         1.7155124835     1.7638041090     0.1638659814
Bq         1.7158685504     1.8137437167     0.1614351791
Bq         1.7162246174     1.8636833244     0.1590043767
Bq         1.7165806844     1.9136229320     0.1565735743
Bq         1.7169367513     1.9635625397     0.1541427719
Bq         1.7172928183     2.0135021474     0.1517119695
Bq         1.7176488853     2.0634417551     0.1492811671
Bq         1.7180049523     2.1133813628     0.1468503648
Bq         1.7183610192     2.1633209705     0.1444195624
Bq         1.7187170862     2.2132605782     0.1419887600
Bq         1.7190731532     2.2632001859     0.1395579576
Bq         1.7194292201     2.3131397936     0.1371271552
Bq         1.7197852871     2.3630794012     0.1346963528
Bq         1.7201413541     2.4130190089     0.1322655505
Bq         1.7204974211     2.4629586166     0.1298347481
Bq         1.7208534880     2.5128982243     0.1274039457
Bq         1.7212095550     2.5628378320     0.1249731433
Bq         1.7215656220     2.6127774397     0.1225423409
Bq         1.7219216889     2.6627170474     0.1201115385
Bq         1.7222777559     2.7126566551     0.1176807362
Bq         1.7226338229     2.7625962627     0.1152499338
Bq         1.7229898899     2.8125358704     0.1128191314
Bq         1.7233459568     2.8624754781     0.1103883290
Bq         1.7237020238     2.9124150858     0.1079575266
Bq         1.7240580908     2.9623546935     0.1055267243
Bq         1.7244141577     3.0122943012     0.1030959219
Bq         1.7247702247     3.0622339089     0.1006651195
Bq         1.7251262917     3.1121735166     0.0982343171
Bq         1.7254823586     3.1621131243     0.0958035147
Bq         1.7258384256     3.2120527319     0.0933727123
Bq         1.7261944926     3.2619923396     0.0909419100
Bq         1.7265505596     3.3119319473     0.0885111076
Bq         1.7269066265     3.3618715550     0.0860803052
Bq         1.7272626935     3.4118111627     0.0836495028
Bq         1.7276187605     3.4617507704     0.0812187004
Bq         1.7279748274     3.5116903781     0.0787878980
Bq         1.7283308944     3.5616299858     0.0763570957
Bq         1.7286869614     3.6115695935     0.0739262933
Bq         1.7290430284     3.6615092011     0.0714954909
Bq         1.7293990953     3.7114488088     0.0690646885
Bq         1.7297551623     3.7613884165     0.0666338861
Bq         1.7301112293     3.8113280242     0.0642030837
Bq         1.7304672962     3.8612676319     0.0617722814
Bq         1.7308233632     3.9112072396     0.0593414790
Bq         1.7311794302     3.9611468473     0.0569106766
Bq         1.7315354972     4.0110864550     0.0544798742
Bq         1.7318915641     4.0610260627     0.0520490718
Bq         1.7322476311     4.1109656703     0.0496182694
Bq         1.7326036981     4.1609052780     0.0471874671
Bq         1.7329597650     4.2108448857     0.0447566647
Bq         1.7333158320     4.2607844934     0.0423258623
Bq         1.7336718990     4.3107241011     0.0398950599
Bq         1.7475372638    -0.6832366678     0.2902220277
Bq         1.7478933308    -0.6332970601     0.2877912253
Bq         1.7482493978    -0.5833574524     0.2853604229
Bq         1.7486054647    -0.5334178447     0.2829296205
Bq         1.7489615317    -0.4834782370     0.2804988182
Bq         1.7493175987    -0.4335386293     0.2780680158
Bq         1.7496736657    -0.3835990216     0.2756372134
Bq         1.7500297326    -0.3336594139     0.2732064110
Bq         1.7503857996    -0.2837198063     0.2707756086
Bq         1.7507418666    -0.2337801986     0.2683448062
Bq         1.7510979335    -0.1838405909     0.2659140039
Bq         1.7514540005    -0.1339009832     0.2634832015
Bq         1.7518100675    -0.0839613755     0.2610523991
Bq         1.7521661344    -0.0340217678     0.2586215967
Bq         1.7525222014     0.0159178399     0.2561907943
Bq         1.7528782684     0.0658574476     0.2537599919
Bq         1.7532343354     0.1157970553     0.2513291896
Bq         1.7535904023     0.1657366629     0.2488983872
Bq         1.7539464693     0.2156762706     0.2464675848
Bq         1.7543025363     0.2656158783     0.2440367824
Bq         1.7546586032     0.3155554860     0.2416059800
Bq         1.7550146702     0.3654950937     0.2391751776
Bq         1.7553707372     0.4154347014     0.2367443753
Bq         1.7557268042     0.4653743091     0.2343135729
Bq         1.7560828711     0.5153139168     0.2318827705
Bq         1.7564389381     0.5652535245     0.2294519681
Bq         1.7567950051     0.6151931321     0.2270211657
Bq         1.7571510720     0.6651327398     0.2245903633
Bq         1.7575071390     0.7150723475     0.2221595610
Bq         1.7578632060     0.7650119552     0.2197287586
Bq         1.7582192730     0.8149515629     0.2172979562
Bq         1.7585753399     0.8648911706     0.2148671538
Bq         1.7589314069     0.9148307783     0.2124363514
Bq         1.7592874739     0.9647703860     0.2100055490

1
2
3
4
5
6
7
8
9
10
11
12
13
14
15
16
17
18
19
20
21
22
23
24
25
26
27
28
29
30
31
32
33
34
35
36
37
38
39
40
41
42
43
44
45
46
47
48
49
50
51
52
53
54
55
56
57
58
59
60
61
62
63
64
65
66
67
68
69
70
71
72
73
74
75
76
77
78
79
80
81
82
83
84
85
86
87
88
89
90
91
92
93
94
95
96
97
98
99
100
101
102
103
104
105
106
107
108
109
110
111
112
113
114
115
116
117
118
119
120
121
122
123
124
125
126
127
128
129
130
131
132
133
134
135
136
137
138
139
140
141
142
143
144
145
146
147
148
149
150
151
152
153
154
155
156
157
158
159
160
161
162
163
164
165
166
167
168
169
170
171
172
173
174
175
176
177
178
179
180
181
182
183
184
185
186
187
188
189
190
191
192
193
194
195
196
197
198
199
200
201
202
203
204
205
206
207
208
209
210
211
212
213
214
215
216
217
218
219
220
221
222
223
224
225
226
227
228
229
230
231
232
233
234
235
236

