%nproc=8
%mem=1000MB
# rb3lyp/6-311+g** NMR geom=connectivity

Title

0 1
C    -4.0500558   -0.5771862    0.8136712
H    -5.0263804   -1.0082727    1.0024760
C    -3.9381552    0.6617804    0.2400876
H    -4.8252424    1.2338890   -0.0111295
C    -2.6768410    1.2433246    0.0057578
C    -1.4974121    0.5051527    0.2848253
C    -1.6508332   -0.7338728    0.9404026
H    -0.7713646   -1.2730967    1.2633753
C    -2.8898548   -1.2624035    1.1994307
H    -2.9683706   -2.2124563    1.7152676
C    -2.5773185    2.5963696   -0.4192930
H    -3.4870728    3.1412239   -0.6474055
C    -1.3741895    3.2147896   -0.4364030
H    -1.2997315    4.2742019   -0.6578144
C    -0.1719488    2.4994090   -0.1734588
C    -0.2043917    1.1018437    0.0192689
C     1.0513491    3.2042560   -0.0676222
H     1.0427344    4.2819499   -0.1896997
C     2.1942091    2.5487446    0.2579577
H     3.1168527    3.0912848    0.4334727
C     2.2216473    1.1336562    0.2934990
C     1.0486931    0.3945528    0.0302412
C     3.4483363    0.4614633    0.5573939
H     4.3095794    1.0606054    0.8334846
C     3.5427346   -0.8855926    0.4749463
H     4.4731467   -1.3939704    0.7038822
C     2.4490052   -1.6474447   -0.0196319
C     1.2150704   -1.0057258   -0.3013573
C     0.2531113   -1.7434440   -1.0216591
H    -0.6541356   -1.2535051   -1.3462847
C     0.4494193   -3.0628597   -1.3413779
H    -0.3083162   -3.5944309   -1.9054060
C     1.6251726   -3.7207967   -0.9552541
H     1.7670048   -4.7687404   -1.1927019
C     2.6109872   -3.0144177   -0.3183050
H     3.5525612   -3.4902813   -0.0646367
Bq         3.3755666647    -1.3469914344     0.2937684736
Bq         3.3737211394    -1.2975000874     0.3006387434
Bq         3.3718756142    -1.2480087404     0.3075090132
Bq         3.3700300889    -1.1985173933     0.3143792830
Bq         3.3681845636    -1.1490260463     0.3212495528
Bq         3.3663390384    -1.0995346993     0.3281198225
Bq         3.3644935131    -1.0500433523     0.3349900923
Bq         3.3626479878    -1.0005520053     0.3418603621
Bq         3.3608024626    -0.9510606583     0.3487306319
Bq         3.3589569373    -0.9015693112     0.3556009017
Bq         3.3571114120    -0.8520779642     0.3624711714
Bq         3.3552658868    -0.8025866172     0.3693414412
Bq         3.3534203615    -0.7530952702     0.3762117110
Bq         3.3515748362    -0.7036039232     0.3830819808
Bq         3.3497293110    -0.6541125761     0.3899522505
Bq         3.3478837857    -0.6046212291     0.3968225203
Bq         3.3460382604    -0.5551298821     0.4036927901
Bq         3.3441927352    -0.5056385351     0.4105630599
Bq         3.3423472099    -0.4561471881     0.4174333297
Bq         3.3405016846    -0.4066558411     0.4243035994
Bq         3.3386561594    -0.3571644940     0.4311738692
Bq         3.3368106341    -0.3076731470     0.4380441390
Bq         3.3349651088    -0.2581818000     0.4449144088
Bq         3.3331195836    -0.2086904530     0.4517846786
Bq         3.3312740583    -0.1591991060     0.4586549483
Bq         3.3294285330    -0.1097077589     0.4655252181
Bq         3.3275830078    -0.0602164119     0.4723954879
Bq         3.3257374825    -0.0107250649     0.4792657577
Bq         3.3238919572     0.0387662821     0.4861360275
Bq         3.3220464319     0.0882576291     0.4930062972
Bq         3.3202009067     0.1377489761     0.4998765670
Bq         3.3183553814     0.1872403232     0.5067468368
Bq         3.3165098561     0.2367316702     0.5136171066
Bq         3.3146643309     0.2862230172     0.5204873764
Bq         3.3128188056     0.3357143642     0.5273576461
Bq         3.3109732803     0.3852057112     0.5342279159
Bq         3.3091277551     0.4346970583     0.5410981857
Bq         3.3072822298     0.4841884053     0.5479684555
Bq         3.3054367045     0.5336797523     0.5548387253
Bq         3.3035911793     0.5831710993     0.5617089950
Bq         3.3017456540     0.6326624463     0.5685792648
Bq         3.2999001287     0.6821537933     0.5754495346
Bq         3.2980546035     0.7316451404     0.5823198044
Bq         3.2962090782     0.7811364874     0.5891900742
Bq         3.2943635529     0.8306278344     0.5960603439
Bq         3.2925180277     0.8801191814     0.6029306137
Bq         3.2906725024     0.9296105284     0.6098008835
Bq         3.2888269771     0.9791018754     0.6166711533
Bq         3.2869814519     1.0285932225     0.6235414230
Bq         3.2851359266     1.0780845695     0.6304116928
Bq         3.2832904013     1.1275759165     0.6372819626
Bq         3.2814448761     1.1770672635     0.6441522324
Bq         3.2795993508     1.2265586105     0.6510225022
Bq         3.2777538255     1.2760499576     0.6578927719
Bq         3.2759083003     1.3255413046     0.6647630417
Bq         3.2740627750     1.3750326516     0.6716333115
Bq         3.2722172497     1.4245239986     0.6785035813
Bq         3.2703717245     1.4740153456     0.6853738511
Bq         3.2685261992     1.5235066926     0.6922441208
Bq         3.2666806739     1.5729980397     0.6991143906
Bq         3.2648351486     1.6224893867     0.7059846604
Bq         3.2629896234     1.6719807337     0.7128549302
Bq         3.2611440981     1.7214720807     0.7197252000
Bq         3.2592985728     1.7709634277     0.7265954697
Bq         3.2574530476     1.8204547748     0.7334657395
Bq         3.2556075223     1.8699461218     0.7403360093
Bq         3.2537619970     1.9194374688     0.7472062791
Bq         3.2519164718     1.9689288158     0.7540765489
Bq         3.2500709465     2.0184201628     0.7609468186
Bq         3.2482254212     2.0679115098     0.7678170884
Bq         3.2463798960     2.1174028569     0.7746873582
Bq         3.2445343707     2.1668942039     0.7815576280
Bq         3.2426888454     2.2163855509     0.7884278978
Bq         3.4755294972    -2.7327491509     0.1143723107
Bq         3.4736839720    -2.6832578039     0.1212425805
Bq         3.4718384467    -2.6337664569     0.1281128503
Bq         3.4699929214    -2.5842751098     0.1349831200
Bq         3.4681473962    -2.5347837628     0.1418533898
Bq         3.4663018709    -2.4852924158     0.1487236596
Bq         3.4644563456    -2.4358010688     0.1555939294
Bq         3.4626108204    -2.3863097218     0.1624641992
Bq         3.4607652951    -2.3368183748     0.1693344689
Bq         3.4589197698    -2.2873270277     0.1762047387
Bq         3.4570742446    -2.2378356807     0.1830750085
Bq         3.4552287193    -2.1883443337     0.1899452783
Bq         3.4533831940    -2.1388529867     0.1968155481
Bq         3.4515376687    -2.0893616397     0.2036858178
Bq         3.4496921435    -2.0398702926     0.2105560876
Bq         3.4478466182    -1.9903789456     0.2174263574
Bq         3.4460010929    -1.9408875986     0.2242966272
Bq         3.4441555677    -1.8913962516     0.2311668970
Bq         3.4423100424    -1.8419049046     0.2380371667
Bq         3.4404645171    -1.7924135576     0.2449074365
Bq         3.4386189919    -1.7429222105     0.2517777063
Bq         3.4367734666    -1.6934308635     0.2586479761
Bq         3.4349279413    -1.6439395165     0.2655182459
Bq         3.4330824161    -1.5944481695     0.2723885156
Bq         3.4312368908    -1.5449568225     0.2792587854
Bq         3.4293913655    -1.4954654754     0.2861290552
Bq         3.4275458403    -1.4459741284     0.2929993250
Bq         3.4257003150    -1.3964827814     0.2998695948
Bq         3.4238547897    -1.3469914344     0.3067398645
Bq         3.4220092645    -1.2975000874     0.3136101343
Bq         3.4201637392    -1.2480087404     0.3204804041
Bq         3.4183182139    -1.1985173933     0.3273506739
Bq         3.4164726887    -1.1490260463     0.3342209436
Bq         3.4146271634    -1.0995346993     0.3410912134
Bq         3.4127816381    -1.0500433523     0.3479614832
Bq         3.4109361129    -1.0005520053     0.3548317530
Bq         3.4090905876    -0.9510606583     0.3617020228
Bq         3.4072450623    -0.9015693112     0.3685722925
Bq         3.4053995371    -0.8520779642     0.3754425623
Bq         3.4035540118    -0.8025866172     0.3823128321
Bq         3.4017084865    -0.7530952702     0.3891831019
Bq         3.3998629613    -0.7036039232     0.3960533717
Bq         3.3980174360    -0.6541125761     0.4029236414
Bq         3.3961719107    -0.6046212291     0.4097939112
Bq         3.3943263855    -0.5551298821     0.4166641810
Bq         3.3924808602    -0.5056385351     0.4235344508
Bq         3.3906353349    -0.4561471881     0.4304047206
Bq         3.3887898096    -0.4066558411     0.4372749903
Bq         3.3869442844    -0.3571644940     0.4441452601
Bq         3.3850987591    -0.3076731470     0.4510155299
Bq         3.3832532338    -0.2581818000     0.4578857997
Bq         3.3814077086    -0.2086904530     0.4647560695
Bq         3.3795621833    -0.1591991060     0.4716263392
Bq         3.3777166580    -0.1097077589     0.4784966090
Bq         3.3758711328    -0.0602164119     0.4853668788
Bq         3.3740256075    -0.0107250649     0.4922371486
Bq         3.3721800822     0.0387662821     0.4991074184
Bq         3.3703345570     0.0882576291     0.5059776881
Bq         3.3684890317     0.1377489761     0.5128479579
Bq         3.3666435064     0.1872403232     0.5197182277
Bq         3.3647979812     0.2367316702     0.5265884975
Bq         3.3629524559     0.2862230172     0.5334587673
Bq         3.3611069306     0.3357143642     0.5403290370
Bq         3.3592614054     0.3852057112     0.5471993068
Bq         3.3574158801     0.4346970583     0.5540695766
Bq         3.3555703548     0.4841884053     0.5609398464
Bq         3.3537248296     0.5336797523     0.5678101161
Bq         3.3518793043     0.5831710993     0.5746803859
Bq         3.3500337790     0.6326624463     0.5815506557
Bq         3.3481882538     0.6821537933     0.5884209255
Bq         3.3463427285     0.7316451404     0.5952911953
Bq         3.3444972032     0.7811364874     0.6021614650
Bq         3.3426516780     0.8306278344     0.6090317348
Bq         3.3408061527     0.8801191814     0.6159020046
Bq         3.3389606274     0.9296105284     0.6227722744
Bq         3.3371151022     0.9791018754     0.6296425442
Bq         3.3352695769     1.0285932225     0.6365128139
Bq         3.3334240516     1.0780845695     0.6433830837
Bq         3.3315785263     1.1275759165     0.6502533535
Bq         3.3297330011     1.1770672635     0.6571236233
Bq         3.3278874758     1.2265586105     0.6639938931
Bq         3.3260419505     1.2760499576     0.6708641628
Bq         3.3241964253     1.3255413046     0.6777344326
Bq         3.3223509000     1.3750326516     0.6846047024
Bq         3.3205053747     1.4245239986     0.6914749722
Bq         3.3186598495     1.4740153456     0.6983452420
Bq         3.3168143242     1.5235066926     0.7052155117
Bq         3.3149687989     1.5729980397     0.7120857815
Bq         3.3131232737     1.6224893867     0.7189560513
Bq         3.3112777484     1.6719807337     0.7258263211
Bq         3.3094322231     1.7214720807     0.7326965909
Bq         3.3075866979     1.7709634277     0.7395668606
Bq         3.3057411726     1.8204547748     0.7464371304
Bq         3.3038956473     1.8699461218     0.7533074002
Bq         3.3020501221     1.9194374688     0.7601776700
Bq         3.3002045968     1.9689288158     0.7670479398
Bq         3.2983590715     2.0184201628     0.7739182095
Bq         3.2965135463     2.0679115098     0.7807884793
Bq         3.2946680210     2.1174028569     0.7876587491
Bq         3.2928224957     2.1668942039     0.7945290189
Bq         3.2909769705     2.2163855509     0.8013992887
Bq         3.5238176223    -2.7327491509     0.1273437016
Bq         3.5219720970    -2.6832578039     0.1342139714
Bq         3.5201265717    -2.6337664569     0.1410842412
Bq         3.5182810464    -2.5842751098     0.1479545109
Bq         3.5164355212    -2.5347837628     0.1548247807
Bq         3.5145899959    -2.4852924158     0.1616950505
Bq         3.5127444706    -2.4358010688     0.1685653203
Bq         3.5108989454    -2.3863097218     0.1754355901
Bq         3.5090534201    -2.3368183748     0.1823058598
Bq         3.5072078948    -2.2873270277     0.1891761296
Bq         3.5053623696    -2.2378356807     0.1960463994
Bq         3.5035168443    -2.1883443337     0.2029166692
Bq         3.5016713190    -2.1388529867     0.2097869390
Bq         3.4998257938    -2.0893616397     0.2166572087
Bq         3.4979802685    -2.0398702926     0.2235274785
Bq         3.4961347432    -1.9903789456     0.2303977483
Bq         3.4942892180    -1.9408875986     0.2372680181
Bq         3.4924436927    -1.8913962516     0.2441382879
Bq         3.4905981674    -1.8419049046     0.2510085576
Bq         3.4887526422    -1.7924135576     0.2578788274
Bq         3.4869071169    -1.7429222105     0.2647490972
Bq         3.4850615916    -1.6934308635     0.2716193670
Bq         3.4832160664    -1.6439395165     0.2784896367
Bq         3.4813705411    -1.5944481695     0.2853599065
Bq         3.4795250158    -1.5449568225     0.2922301763
Bq         3.4776794906    -1.4954654754     0.2991004461

1
2
3
4
5
6
7
8
9
10
11
12
13
14
15
16
17
18
19
20
21
22
23
24
25
26
27
28
29
30
31
32
33
34
35
36
37
38
39
40
41
42
43
44
45
46
47
48
49
50
51
52
53
54
55
56
57
58
59
60
61
62
63
64
65
66
67
68
69
70
71
72
73
74
75
76
77
78
79
80
81
82
83
84
85
86
87
88
89
90
91
92
93
94
95
96
97
98
99
100
101
102
103
104
105
106
107
108
109
110
111
112
113
114
115
116
117
118
119
120
121
122
123
124
125
126
127
128
129
130
131
132
133
134
135
136
137
138
139
140
141
142
143
144
145
146
147
148
149
150
151
152
153
154
155
156
157
158
159
160
161
162
163
164
165
166
167
168
169
170
171
172
173
174
175
176
177
178
179
180
181
182
183
184
185
186
187
188
189
190
191
192
193
194
195
196
197
198
199
200
201
202
203
204
205
206
207
208
209
210
211
212
213
214
215
216
217
218
219
220
221
222
223
224
225
226
227
228
229
230
231
232
233
234
235
236

