%nproc=8
%mem=1000MB
# rb3lyp/6-311+g** NMR geom=connectivity

Title

0 1
C    -4.0500558   -0.5771862    0.8136712
H    -5.0263804   -1.0082727    1.0024760
C    -3.9381552    0.6617804    0.2400876
H    -4.8252424    1.2338890   -0.0111295
C    -2.6768410    1.2433246    0.0057578
C    -1.4974121    0.5051527    0.2848253
C    -1.6508332   -0.7338728    0.9404026
H    -0.7713646   -1.2730967    1.2633753
C    -2.8898548   -1.2624035    1.1994307
H    -2.9683706   -2.2124563    1.7152676
C    -2.5773185    2.5963696   -0.4192930
H    -3.4870728    3.1412239   -0.6474055
C    -1.3741895    3.2147896   -0.4364030
H    -1.2997315    4.2742019   -0.6578144
C    -0.1719488    2.4994090   -0.1734588
C    -0.2043917    1.1018437    0.0192689
C     1.0513491    3.2042560   -0.0676222
H     1.0427344    4.2819499   -0.1896997
C     2.1942091    2.5487446    0.2579577
H     3.1168527    3.0912848    0.4334727
C     2.2216473    1.1336562    0.2934990
C     1.0486931    0.3945528    0.0302412
C     3.4483363    0.4614633    0.5573939
H     4.3095794    1.0606054    0.8334846
C     3.5427346   -0.8855926    0.4749463
H     4.4731467   -1.3939704    0.7038822
C     2.4490052   -1.6474447   -0.0196319
C     1.2150704   -1.0057258   -0.3013573
C     0.2531113   -1.7434440   -1.0216591
H    -0.6541356   -1.2535051   -1.3462847
C     0.4494193   -3.0628597   -1.3413779
H    -0.3083162   -3.5944309   -1.9054060
C     1.6251726   -3.7207967   -0.9552541
H     1.7670048   -4.7687404   -1.1927019
C     2.6109872   -3.0144177   -0.3183050
H     3.5525612   -3.4902813   -0.0646367
Bq        -2.0352319365    -0.7476119414     0.9315031945
Bq        -2.0351464703    -0.7025862450     0.9097620040
Bq        -2.0350610042    -0.6575605487     0.8880208135
Bq        -2.0349755380    -0.6125348524     0.8662796229
Bq        -2.0348900719    -0.5675091560     0.8445384324
Bq        -2.0348046058    -0.5224834597     0.8227972419
Bq        -2.0347191396    -0.4774577634     0.8010560514
Bq        -2.0346336735    -0.4324320670     0.7793148609
Bq        -2.0345482074    -0.3874063707     0.7575736704
Bq        -2.0344627412    -0.3423806743     0.7358324798
Bq        -2.0343772751    -0.2973549780     0.7140912893
Bq        -2.0342918089    -0.2523292817     0.6923500988
Bq        -2.0342063428    -0.2073035853     0.6706089083
Bq        -2.0341208767    -0.1622778890     0.6488677178
Bq        -2.0340354105    -0.1172521927     0.6271265273
Bq        -2.0339499444    -0.0722264963     0.6053853367
Bq        -2.0338644783    -0.0272008000     0.5836441462
Bq        -2.0337790121     0.0178248963     0.5619029557
Bq        -2.0336935460     0.0628505927     0.5401617652
Bq        -2.0336080798     0.1078762890     0.5184205747
Bq        -2.0335226137     0.1529019853     0.4966793842
Bq        -2.0334371476     0.1979276817     0.4749381937
Bq        -2.0333516814     0.2429533780     0.4531970031
Bq        -2.0332662153     0.2879790743     0.4314558126
Bq        -2.0331807492     0.3330047707     0.4097146221
Bq        -2.0330952830     0.3780304670     0.3879734316
Bq        -2.0330098169     0.4230561634     0.3662322411
Bq        -2.0329243507     0.4680818597     0.3444910506
Bq        -2.0328388846     0.5131075560     0.3227498600
Bq        -2.0327534185     0.5581332524     0.3010086695
Bq        -2.0326679523     0.6031589487     0.2792674790
Bq        -2.0325824862     0.6481846450     0.2575262885
Bq        -2.0324970201     0.6932103414     0.2357850980
Bq        -2.0324115539     0.7382360377     0.2140439075
Bq        -2.0323260878     0.7832617340     0.1923027169
Bq        -2.0322406216     0.8282874304     0.1705615264
Bq        -2.0321551555     0.8733131267     0.1488203359
Bq        -2.0320696894     0.9183388230     0.1270791454
Bq        -2.0319842232     0.9633645194     0.1053379549
Bq        -2.0318987571     1.0083902157     0.0835967644
Bq        -2.0318132910     1.0534159120     0.0618555738
Bq        -2.0317278248     1.0984416084     0.0401143833
Bq        -2.0316423587     1.1434673047     0.0183731928
Bq        -2.0315568925     1.1884930011    -0.0033679977
Bq        -2.0314714264     1.2335186974    -0.0251091882
Bq        -2.0313859603     1.2785443937    -0.0468503787
Bq        -2.0313004941     1.3235700901    -0.0685915693
Bq        -2.0312150280     1.3685957864    -0.0903327598
Bq        -2.0311295619     1.4136214827    -0.1120739503
Bq        -2.0310440957     1.4586471791    -0.1338151408
Bq        -2.0309586296     1.5036728754    -0.1555563313
Bq        -2.0308731634     1.5486985717    -0.1772975218
Bq        -2.0307876973     1.5937242681    -0.1990387124
Bq        -2.0307022312     1.6387499644    -0.2207799029
Bq        -2.0306167650     1.6837756607    -0.2425210934
Bq        -2.0305312989     1.7288013571    -0.2642622839
Bq        -2.0304458328     1.7738270534    -0.2860034744
Bq        -2.0303603666     1.8188527497    -0.3077446649
Bq        -2.0302749005     1.8638784461    -0.3294858554
Bq        -2.0301894344     1.9089041424    -0.3512270460
Bq        -2.0301039682     1.9539298388    -0.3729682365
Bq        -2.0300185021     1.9989555351    -0.3947094270
Bq        -2.0299330359     2.0439812314    -0.4164506175
Bq        -2.0298475698     2.0890069278    -0.4381918080
Bq        -2.0297621037     2.1340326241    -0.4599329985
Bq        -2.0296766375     2.1790583204    -0.4816741891
Bq        -2.0295911714     2.2240840168    -0.5034153796
Bq        -1.9881381715    -2.2784856168     1.6709002240
Bq        -1.9880527053    -2.2334599204     1.6491590335
Bq        -1.9879672392    -2.1884342241     1.6274178430
Bq        -1.9878817730    -2.1434085278     1.6056766525
Bq        -1.9877963069    -2.0983828314     1.5839354620
Bq        -1.9877108408    -2.0533571351     1.5621942714
Bq        -1.9876253746    -2.0083314388     1.5404530809
Bq        -1.9875399085    -1.9633057424     1.5187118904
Bq        -1.9874544424    -1.9182800461     1.4969706999
Bq        -1.9873689762    -1.8732543497     1.4752295094
Bq        -1.9872835101    -1.8282286534     1.4534883189
Bq        -1.9871980439    -1.7832029571     1.4317471283
Bq        -1.9871125778    -1.7381772607     1.4100059378
Bq        -1.9870271117    -1.6931515644     1.3882647473
Bq        -1.9869416455    -1.6481258681     1.3665235568
Bq        -1.9868561794    -1.6031001717     1.3447823663
Bq        -1.9867707133    -1.5580744754     1.3230411758
Bq        -1.9866852471    -1.5130487791     1.3012999852
Bq        -1.9865997810    -1.4680230827     1.2795587947
Bq        -1.9865143148    -1.4229973864     1.2578176042
Bq        -1.9864288487    -1.3779716901     1.2360764137
Bq        -1.9863433826    -1.3329459937     1.2143352232
Bq        -1.9862579164    -1.2879202974     1.1925940327
Bq        -1.9861724503    -1.2428946011     1.1708528421
Bq        -1.9860869842    -1.1978689047     1.1491116516
Bq        -1.9860015180    -1.1528432084     1.1273704611
Bq        -1.9859160519    -1.1078175120     1.1056292706
Bq        -1.9858305857    -1.0627918157     1.0838880801
Bq        -1.9857451196    -1.0177661194     1.0621468896
Bq        -1.9856596535    -0.9727404230     1.0404056990
Bq        -1.9855741873    -0.9277147267     1.0186645085
Bq        -1.9854887212    -0.8826890304     0.9969233180
Bq        -1.9854032551    -0.8376633340     0.9751821275
Bq        -1.9853177889    -0.7926376377     0.9534409370
Bq        -1.9852323228    -0.7476119414     0.9316997465
Bq        -1.9851468566    -0.7025862450     0.9099585559
Bq        -1.9850613905    -0.6575605487     0.8882173654
Bq        -1.9849759244    -0.6125348524     0.8664761749
Bq        -1.9848904582    -0.5675091560     0.8447349844
Bq        -1.9848049921    -0.5224834597     0.8229937939
Bq        -1.9847195260    -0.4774577634     0.8012526034
Bq        -1.9846340598    -0.4324320670     0.7795114129
Bq        -1.9845485937    -0.3874063707     0.7577702223
Bq        -1.9844631275    -0.3423806743     0.7360290318
Bq        -1.9843776614    -0.2973549780     0.7142878413
Bq        -1.9842921953    -0.2523292817     0.6925466508
Bq        -1.9842067291    -0.2073035853     0.6708054603
Bq        -1.9841212630    -0.1622778890     0.6490642698
Bq        -1.9840357969    -0.1172521927     0.6273230792
Bq        -1.9839503307    -0.0722264963     0.6055818887
Bq        -1.9838648646    -0.0272008000     0.5838406982
Bq        -1.9837793984     0.0178248963     0.5620995077
Bq        -1.9836939323     0.0628505927     0.5403583172
Bq        -1.9836084662     0.1078762890     0.5186171267
Bq        -1.9835230000     0.1529019853     0.4968759361
Bq        -1.9834375339     0.1979276817     0.4751347456
Bq        -1.9833520678     0.2429533780     0.4533935551
Bq        -1.9832666016     0.2879790743     0.4316523646
Bq        -1.9831811355     0.3330047707     0.4099111741
Bq        -1.9830956693     0.3780304670     0.3881699836
Bq        -1.9830102032     0.4230561634     0.3664287930
Bq        -1.9829247371     0.4680818597     0.3446876025
Bq        -1.9828392709     0.5131075560     0.3229464120
Bq        -1.9827538048     0.5581332524     0.3012052215
Bq        -1.9826683387     0.6031589487     0.2794640310
Bq        -1.9825828725     0.6481846450     0.2577228405
Bq        -1.9824974064     0.6932103414     0.2359816499
Bq        -1.9824119403     0.7382360377     0.2142404594
Bq        -1.9823264741     0.7832617340     0.1924992689
Bq        -1.9822410080     0.8282874304     0.1707580784
Bq        -1.9821555418     0.8733131267     0.1490168879
Bq        -1.9820700757     0.9183388230     0.1272756974
Bq        -1.9819846096     0.9633645194     0.1055345068
Bq        -1.9818991434     1.0083902157     0.0837933163
Bq        -1.9818136773     1.0534159120     0.0620521258
Bq        -1.9817282112     1.0984416084     0.0403109353
Bq        -1.9816427450     1.1434673047     0.0185697448
Bq        -1.9815572789     1.1884930011    -0.0031714457
Bq        -1.9814718127     1.2335186974    -0.0249126363
Bq        -1.9813863466     1.2785443937    -0.0466538268
Bq        -1.9813008805     1.3235700901    -0.0683950173
Bq        -1.9812154143     1.3685957864    -0.0901362078
Bq        -1.9811299482     1.4136214827    -0.1118773983
Bq        -1.9810444821     1.4586471791    -0.1336185888
Bq        -1.9809590159     1.5036728754    -0.1553597793
Bq        -1.9808735498     1.5486985717    -0.1771009699
Bq        -1.9807880836     1.5937242681    -0.1988421604
Bq        -1.9807026175     1.6387499644    -0.2205833509
Bq        -1.9806171514     1.6837756607    -0.2423245414
Bq        -1.9805316852     1.7288013571    -0.2640657319
Bq        -1.9804462191     1.7738270534    -0.2858069224
Bq        -1.9803607530     1.8188527497    -0.3075481130
Bq        -1.9802752868     1.8638784461    -0.3292893035
Bq        -1.9801898207     1.9089041424    -0.3510304940
Bq        -1.9801043545     1.9539298388    -0.3727716845
Bq        -1.9800188884     1.9989555351    -0.3945128750
Bq        -1.9799334223     2.0439812314    -0.4162540655
Bq        -1.9798479561     2.0890069278    -0.4379952561
Bq        -1.9797624900     2.1340326241    -0.4597364466
Bq        -1.9796770239     2.1790583204    -0.4814776371
Bq        -1.9795915577     2.2240840168    -0.5032188276
Bq        -1.9381385578    -2.2784856168     1.6710967760
Bq        -1.9380530916    -2.2334599204     1.6493555855
Bq        -1.9379676255    -2.1884342241     1.6276143950
Bq        -1.9378821594    -2.1434085278     1.6058732044
Bq        -1.9377966932    -2.0983828314     1.5841320139
Bq        -1.9377112271    -2.0533571351     1.5623908234
Bq        -1.9376257610    -2.0083314388     1.5406496329
Bq        -1.9375402948    -1.9633057424     1.5189084424
Bq        -1.9374548287    -1.9182800461     1.4971672519
Bq        -1.9373693625    -1.8732543497     1.4754260613
Bq        -1.9372838964    -1.8282286534     1.4536848708
Bq        -1.9371984303    -1.7832029571     1.4319436803
Bq        -1.9371129641    -1.7381772607     1.4102024898
Bq        -1.9370274980    -1.6931515644     1.3884612993
Bq        -1.9369420319    -1.6481258681     1.3667201088
Bq        -1.9368565657    -1.6031001717     1.3449789182
Bq        -1.9367710996    -1.5580744754     1.3232377277
Bq        -1.9366856334    -1.5130487791     1.3014965372
Bq        -1.9366001673    -1.4680230827     1.2797553467
Bq        -1.9365147012    -1.4229973864     1.2580141562
Bq        -1.9364292350    -1.3779716901     1.2362729657
Bq        -1.9363437689    -1.3329459937     1.2145317751
Bq        -1.9362583028    -1.2879202974     1.1927905846
Bq        -1.9361728366    -1.2428946011     1.1710493941
Bq        -1.9360873705    -1.1978689047     1.1493082036
Bq        -1.9360019043    -1.1528432084     1.1275670131
Bq        -1.9359164382    -1.1078175120     1.1058258226
Bq        -1.9358309721    -1.0627918157     1.0840846320
Bq        -1.9357455059    -1.0177661194     1.0623434415
Bq        -1.9356600398    -0.9727404230     1.0406022510
Bq        -1.9355745737    -0.9277147267     1.0188610605
Bq        -1.9354891075    -0.8826890304     0.9971198700

1
2
3
4
5
6
7
8
9
10
11
12
13
14
15
16
17
18
19
20
21
22
23
24
25
26
27
28
29
30
31
32
33
34
35
36
37
38
39
40
41
42
43
44
45
46
47
48
49
50
51
52
53
54
55
56
57
58
59
60
61
62
63
64
65
66
67
68
69
70
71
72
73
74
75
76
77
78
79
80
81
82
83
84
85
86
87
88
89
90
91
92
93
94
95
96
97
98
99
100
101
102
103
104
105
106
107
108
109
110
111
112
113
114
115
116
117
118
119
120
121
122
123
124
125
126
127
128
129
130
131
132
133
134
135
136
137
138
139
140
141
142
143
144
145
146
147
148
149
150
151
152
153
154
155
156
157
158
159
160
161
162
163
164
165
166
167
168
169
170
171
172
173
174
175
176
177
178
179
180
181
182
183
184
185
186
187
188
189
190
191
192
193
194
195
196
197
198
199
200
201
202
203
204
205
206
207
208
209
210
211
212
213
214
215
216
217
218
219
220
221
222
223
224
225
226
227
228
229
230
231
232
233
234
235
236

