%nproc=8
%mem=1000MB
# rb3lyp/6-311+g** NMR geom=connectivity

Title

0 1
C    -4.0500558   -0.5771862    0.8136712
H    -5.0263804   -1.0082727    1.0024760
C    -3.9381552    0.6617804    0.2400876
H    -4.8252424    1.2338890   -0.0111295
C    -2.6768410    1.2433246    0.0057578
C    -1.4974121    0.5051527    0.2848253
C    -1.6508332   -0.7338728    0.9404026
H    -0.7713646   -1.2730967    1.2633753
C    -2.8898548   -1.2624035    1.1994307
H    -2.9683706   -2.2124563    1.7152676
C    -2.5773185    2.5963696   -0.4192930
H    -3.4870728    3.1412239   -0.6474055
C    -1.3741895    3.2147896   -0.4364030
H    -1.2997315    4.2742019   -0.6578144
C    -0.1719488    2.4994090   -0.1734588
C    -0.2043917    1.1018437    0.0192689
C     1.0513491    3.2042560   -0.0676222
H     1.0427344    4.2819499   -0.1896997
C     2.1942091    2.5487446    0.2579577
H     3.1168527    3.0912848    0.4334727
C     2.2216473    1.1336562    0.2934990
C     1.0486931    0.3945528    0.0302412
C     3.4483363    0.4614633    0.5573939
H     4.3095794    1.0606054    0.8334846
C     3.5427346   -0.8855926    0.4749463
H     4.4731467   -1.3939704    0.7038822
C     2.4490052   -1.6474447   -0.0196319
C     1.2150704   -1.0057258   -0.3013573
C     0.2531113   -1.7434440   -1.0216591
H    -0.6541356   -1.2535051   -1.3462847
C     0.4494193   -3.0628597   -1.3413779
H    -0.3083162   -3.5944309   -1.9054060
C     1.6251726   -3.7207967   -0.9552541
H     1.7670048   -4.7687404   -1.1927019
C     2.6109872   -3.0144177   -0.3183050
H     3.5525612   -3.4902813   -0.0646367
Bq         0.6683495490     1.3255413046    -0.0356920666
Bq         0.6665040237     1.3750326516    -0.0288217968
Bq         0.6646584985     1.4245239986    -0.0219515270
Bq         0.6628129732     1.4740153456    -0.0150812572
Bq         0.6609674479     1.5235066926    -0.0082109875
Bq         0.6591219227     1.5729980397    -0.0013407177
Bq         0.6572763974     1.6224893867     0.0055295521
Bq         0.6554308721     1.6719807337     0.0123998219
Bq         0.6535853469     1.7214720807     0.0192700917
Bq         0.6517398216     1.7709634277     0.0261403614
Bq         0.6498942963     1.8204547748     0.0330106312
Bq         0.6480487711     1.8699461218     0.0398809010
Bq         0.6462032458     1.9194374688     0.0467511708
Bq         0.6443577205     1.9689288158     0.0536214406
Bq         0.6425121953     2.0184201628     0.0604917103
Bq         0.6406666700     2.0679115098     0.0673619801
Bq         0.6388211447     2.1174028569     0.0742322499
Bq         0.6369756194     2.1668942039     0.0811025197
Bq         0.6351300942     2.2163855509     0.0879727895
Bq         0.8679707460    -2.7327491509    -0.5860827976
Bq         0.8661252207    -2.6832578039    -0.5792125278
Bq         0.8642796954    -2.6337664569    -0.5723422580
Bq         0.8624341702    -2.5842751098    -0.5654719883
Bq         0.8605886449    -2.5347837628    -0.5586017185
Bq         0.8587431196    -2.4852924158    -0.5517314487
Bq         0.8568975944    -2.4358010688    -0.5448611789
Bq         0.8550520691    -2.3863097218    -0.5379909091
Bq         0.8532065438    -2.3368183748    -0.5311206394
Bq         0.8513610186    -2.2873270277    -0.5242503696
Bq         0.8495154933    -2.2378356807    -0.5173800998
Bq         0.8476699680    -2.1883443337    -0.5105098300
Bq         0.8458244428    -2.1388529867    -0.5036395602
Bq         0.8439789175    -2.0893616397    -0.4967692905
Bq         0.8421333922    -2.0398702926    -0.4898990207
Bq         0.8402878670    -1.9903789456    -0.4830287509
Bq         0.8384423417    -1.9408875986    -0.4761584811
Bq         0.8365968164    -1.8913962516    -0.4692882113
Bq         0.8347512912    -1.8419049046    -0.4624179416
Bq         0.8329057659    -1.7924135576    -0.4555476718
Bq         0.8310602406    -1.7429222105    -0.4486774020
Bq         0.8292147154    -1.6934308635    -0.4418071322
Bq         0.8273691901    -1.6439395165    -0.4349368624
Bq         0.8255236648    -1.5944481695    -0.4280665927
Bq         0.8236781395    -1.5449568225    -0.4211963229
Bq         0.8218326143    -1.4954654754    -0.4143260531
Bq         0.8199870890    -1.4459741284    -0.4074557833
Bq         0.8181415637    -1.3964827814    -0.4005855136
Bq         0.8162960385    -1.3469914344    -0.3937152438
Bq         0.8144505132    -1.2975000874    -0.3868449740
Bq         0.8126049879    -1.2480087404    -0.3799747042
Bq         0.8107594627    -1.1985173933    -0.3731044344
Bq         0.8089139374    -1.1490260463    -0.3662341647
Bq         0.8070684121    -1.0995346993    -0.3593638949
Bq         0.8052228869    -1.0500433523    -0.3524936251
Bq         0.8033773616    -1.0005520053    -0.3456233553
Bq         0.8015318363    -0.9510606583    -0.3387530855
Bq         0.7996863111    -0.9015693112    -0.3318828158
Bq         0.7978407858    -0.8520779642    -0.3250125460
Bq         0.7959952605    -0.8025866172    -0.3181422762
Bq         0.7941497353    -0.7530952702    -0.3112720064
Bq         0.7923042100    -0.7036039232    -0.3044017366
Bq         0.7904586847    -0.6541125761    -0.2975314669
Bq         0.7886131595    -0.6046212291    -0.2906611971
Bq         0.7867676342    -0.5551298821    -0.2837909273
Bq         0.7849221089    -0.5056385351    -0.2769206575
Bq         0.7830765837    -0.4561471881    -0.2700503877
Bq         0.7812310584    -0.4066558411    -0.2631801180
Bq         0.7793855331    -0.3571644940    -0.2563098482
Bq         0.7775400079    -0.3076731470    -0.2494395784
Bq         0.7756944826    -0.2581818000    -0.2425693086
Bq         0.7738489573    -0.2086904530    -0.2356990388
Bq         0.7720034321    -0.1591991060    -0.2288287691
Bq         0.7701579068    -0.1097077589    -0.2219584993
Bq         0.7683123815    -0.0602164119    -0.2150882295
Bq         0.7664668563    -0.0107250649    -0.2082179597
Bq         0.7646213310     0.0387662821    -0.2013476899
Bq         0.7627758057     0.0882576291    -0.1944774202
Bq         0.7609302804     0.1377489761    -0.1876071504
Bq         0.7590847552     0.1872403232    -0.1807368806
Bq         0.7572392299     0.2367316702    -0.1738666108
Bq         0.7553937046     0.2862230172    -0.1669963410
Bq         0.7535481794     0.3357143642    -0.1601260713
Bq         0.7517026541     0.3852057112    -0.1532558015
Bq         0.7498571288     0.4346970583    -0.1463855317
Bq         0.7480116036     0.4841884053    -0.1395152619
Bq         0.7461660783     0.5336797523    -0.1326449922
Bq         0.7443205530     0.5831710993    -0.1257747224
Bq         0.7424750278     0.6326624463    -0.1189044526
Bq         0.7406295025     0.6821537933    -0.1120341828
Bq         0.7387839772     0.7316451404    -0.1051639130
Bq         0.7369384520     0.7811364874    -0.0982936433
Bq         0.7350929267     0.8306278344    -0.0914233735
Bq         0.7332474014     0.8801191814    -0.0845531037
Bq         0.7314018762     0.9296105284    -0.0776828339
Bq         0.7295563509     0.9791018754    -0.0708125641
Bq         0.7277108256     1.0285932225    -0.0639422944
Bq         0.7258653004     1.0780845695    -0.0570720246
Bq         0.7240197751     1.1275759165    -0.0502017548
Bq         0.7221742498     1.1770672635    -0.0433314850
Bq         0.7203287246     1.2265586105    -0.0364612152
Bq         0.7184831993     1.2760499576    -0.0295909455
Bq         0.7166376740     1.3255413046    -0.0227206757
Bq         0.7147921488     1.3750326516    -0.0158504059
Bq         0.7129466235     1.4245239986    -0.0089801361
Bq         0.7111010982     1.4740153456    -0.0021098663
Bq         0.7092555730     1.5235066926     0.0047604034
Bq         0.7074100477     1.5729980397     0.0116306732
Bq         0.7055645224     1.6224893867     0.0185009430
Bq         0.7037189971     1.6719807337     0.0253712128
Bq         0.7018734719     1.7214720807     0.0322414826
Bq         0.7000279466     1.7709634277     0.0391117523
Bq         0.6981824213     1.8204547748     0.0459820221
Bq         0.6963368961     1.8699461218     0.0528522919
Bq         0.6944913708     1.9194374688     0.0597225617
Bq         0.6926458455     1.9689288158     0.0665928315
Bq         0.6908003203     2.0184201628     0.0734631012
Bq         0.6889547950     2.0679115098     0.0803333710
Bq         0.6871092697     2.1174028569     0.0872036408
Bq         0.6852637445     2.1668942039     0.0940739106
Bq         0.6834182192     2.2163855509     0.1009441803
Bq         0.9162588710    -2.7327491509    -0.5731114067
Bq         0.9144133457    -2.6832578039    -0.5662411369
Bq         0.9125678205    -2.6337664569    -0.5593708671
Bq         0.9107222952    -2.5842751098    -0.5525005974
Bq         0.9088767699    -2.5347837628    -0.5456303276
Bq         0.9070312447    -2.4852924158    -0.5387600578
Bq         0.9051857194    -2.4358010688    -0.5318897880
Bq         0.9033401941    -2.3863097218    -0.5250195182
Bq         0.9014946689    -2.3368183748    -0.5181492485
Bq         0.8996491436    -2.2873270277    -0.5112789787
Bq         0.8978036183    -2.2378356807    -0.5044087089
Bq         0.8959580931    -2.1883443337    -0.4975384391
Bq         0.8941125678    -2.1388529867    -0.4906681693
Bq         0.8922670425    -2.0893616397    -0.4837978996
Bq         0.8904215172    -2.0398702926    -0.4769276298
Bq         0.8885759920    -1.9903789456    -0.4700573600
Bq         0.8867304667    -1.9408875986    -0.4631870902
Bq         0.8848849414    -1.8913962516    -0.4563168205
Bq         0.8830394162    -1.8419049046    -0.4494465507
Bq         0.8811938909    -1.7924135576    -0.4425762809
Bq         0.8793483656    -1.7429222105    -0.4357060111
Bq         0.8775028404    -1.6934308635    -0.4288357413
Bq         0.8756573151    -1.6439395165    -0.4219654716
Bq         0.8738117898    -1.5944481695    -0.4150952018
Bq         0.8719662646    -1.5449568225    -0.4082249320
Bq         0.8701207393    -1.4954654754    -0.4013546622
Bq         0.8682752140    -1.4459741284    -0.3944843924
Bq         0.8664296888    -1.3964827814    -0.3876141227
Bq         0.8645841635    -1.3469914344    -0.3807438529
Bq         0.8627386382    -1.2975000874    -0.3738735831
Bq         0.8608931130    -1.2480087404    -0.3670033133
Bq         0.8590475877    -1.1985173933    -0.3601330435
Bq         0.8572020624    -1.1490260463    -0.3532627738
Bq         0.8553565372    -1.0995346993    -0.3463925040
Bq         0.8535110119    -1.0500433523    -0.3395222342
Bq         0.8516654866    -1.0005520053    -0.3326519644
Bq         0.8498199614    -0.9510606583    -0.3257816946
Bq         0.8479744361    -0.9015693112    -0.3189114249
Bq         0.8461289108    -0.8520779642    -0.3120411551
Bq         0.8442833856    -0.8025866172    -0.3051708853
Bq         0.8424378603    -0.7530952702    -0.2983006155
Bq         0.8405923350    -0.7036039232    -0.2914303457
Bq         0.8387468098    -0.6541125761    -0.2845600760
Bq         0.8369012845    -0.6046212291    -0.2776898062
Bq         0.8350557592    -0.5551298821    -0.2708195364
Bq         0.8332102340    -0.5056385351    -0.2639492666
Bq         0.8313647087    -0.4561471881    -0.2570789968
Bq         0.8295191834    -0.4066558411    -0.2502087271
Bq         0.8276736581    -0.3571644940    -0.2433384573
Bq         0.8258281329    -0.3076731470    -0.2364681875
Bq         0.8239826076    -0.2581818000    -0.2295979177
Bq         0.8221370823    -0.2086904530    -0.2227276479
Bq         0.8202915571    -0.1591991060    -0.2158573782
Bq         0.8184460318    -0.1097077589    -0.2089871084
Bq         0.8166005065    -0.0602164119    -0.2021168386
Bq         0.8147549813    -0.0107250649    -0.1952465688
Bq         0.8129094560     0.0387662821    -0.1883762991
Bq         0.8110639307     0.0882576291    -0.1815060293
Bq         0.8092184055     0.1377489761    -0.1746357595
Bq         0.8073728802     0.1872403232    -0.1677654897
Bq         0.8055273549     0.2367316702    -0.1608952199
Bq         0.8036818297     0.2862230172    -0.1540249502
Bq         0.8018363044     0.3357143642    -0.1471546804
Bq         0.7999907791     0.3852057112    -0.1402844106
Bq         0.7981452539     0.4346970583    -0.1334141408
Bq         0.7962997286     0.4841884053    -0.1265438710
Bq         0.7944542033     0.5336797523    -0.1196736013
Bq         0.7926086781     0.5831710993    -0.1128033315
Bq         0.7907631528     0.6326624463    -0.1059330617
Bq         0.7889176275     0.6821537933    -0.0990627919
Bq         0.7870721023     0.7316451404    -0.0921925221
Bq         0.7852265770     0.7811364874    -0.0853222524
Bq         0.7833810517     0.8306278344    -0.0784519826
Bq         0.7815355265     0.8801191814    -0.0715817128
Bq         0.7796900012     0.9296105284    -0.0647114430
Bq         0.7778444759     0.9791018754    -0.0578411732
Bq         0.7759989507     1.0285932225    -0.0509709035
Bq         0.7741534254     1.0780845695    -0.0441006337
Bq         0.7723079001     1.1275759165    -0.0372303639
Bq         0.7704623748     1.1770672635    -0.0303600941

1
2
3
4
5
6
7
8
9
10
11
12
13
14
15
16
17
18
19
20
21
22
23
24
25
26
27
28
29
30
31
32
33
34
35
36
37
38
39
40
41
42
43
44
45
46
47
48
49
50
51
52
53
54
55
56
57
58
59
60
61
62
63
64
65
66
67
68
69
70
71
72
73
74
75
76
77
78
79
80
81
82
83
84
85
86
87
88
89
90
91
92
93
94
95
96
97
98
99
100
101
102
103
104
105
106
107
108
109
110
111
112
113
114
115
116
117
118
119
120
121
122
123
124
125
126
127
128
129
130
131
132
133
134
135
136
137
138
139
140
141
142
143
144
145
146
147
148
149
150
151
152
153
154
155
156
157
158
159
160
161
162
163
164
165
166
167
168
169
170
171
172
173
174
175
176
177
178
179
180
181
182
183
184
185
186
187
188
189
190
191
192
193
194
195
196
197
198
199
200
201
202
203
204
205
206
207
208
209
210
211
212
213
214
215
216
217
218
219
220
221
222
223
224
225
226
227
228
229
230
231
232
233
234
235
236

