%nproc=8
%mem=1000MB
# rb3lyp/6-311+g** NMR geom=connectivity

Title

0 1
C    -4.0500558   -0.5771862    0.8136712
H    -5.0263804   -1.0082727    1.0024760
C    -3.9381552    0.6617804    0.2400876
H    -4.8252424    1.2338890   -0.0111295
C    -2.6768410    1.2433246    0.0057578
C    -1.4974121    0.5051527    0.2848253
C    -1.6508332   -0.7338728    0.9404026
H    -0.7713646   -1.2730967    1.2633753
C    -2.8898548   -1.2624035    1.1994307
H    -2.9683706   -2.2124563    1.7152676
C    -2.5773185    2.5963696   -0.4192930
H    -3.4870728    3.1412239   -0.6474055
C    -1.3741895    3.2147896   -0.4364030
H    -1.2997315    4.2742019   -0.6578144
C    -0.1719488    2.4994090   -0.1734588
C    -0.2043917    1.1018437    0.0192689
C     1.0513491    3.2042560   -0.0676222
H     1.0427344    4.2819499   -0.1896997
C     2.1942091    2.5487446    0.2579577
H     3.1168527    3.0912848    0.4334727
C     2.2216473    1.1336562    0.2934990
C     1.0486931    0.3945528    0.0302412
C     3.4483363    0.4614633    0.5573939
H     4.3095794    1.0606054    0.8334846
C     3.5427346   -0.8855926    0.4749463
H     4.4731467   -1.3939704    0.7038822
C     2.4490052   -1.6474447   -0.0196319
C     1.2150704   -1.0057258   -0.3013573
C     0.2531113   -1.7434440   -1.0216591
H    -0.6541356   -1.2535051   -1.3462847
C     0.4494193   -3.0628597   -1.3413779
H    -0.3083162   -3.5944309   -1.9054060
C     1.6251726   -3.7207967   -0.9552541
H     1.7670048   -4.7687404   -1.1927019
C     2.6109872   -3.0144177   -0.3183050
H     3.5525612   -3.4902813   -0.0646367
Bq         1.3882698967    -2.3657814333    -0.6802742438
Bq         1.3827666600    -2.3175849420    -0.6681576186
Bq         1.3772634233    -2.2693884506    -0.6560409934
Bq         1.3717601866    -2.2211919593    -0.6439243681
Bq         1.3662569499    -2.1729954679    -0.6318077429
Bq         1.3607537132    -2.1247989766    -0.6196911177
Bq         1.3552504766    -2.0766024852    -0.6075744924
Bq         1.3497472399    -2.0284059938    -0.5954578672
Bq         1.3442440032    -1.9802095025    -0.5833412420
Bq         1.3387407665    -1.9320130111    -0.5712246168
Bq         1.3332375298    -1.8838165198    -0.5591079915
Bq         1.3277342931    -1.8356200284    -0.5469913663
Bq         1.3222310564    -1.7874235371    -0.5348747411
Bq         1.3167278198    -1.7392270457    -0.5227581158
Bq         1.3112245831    -1.6910305543    -0.5106414906
Bq         1.3057213464    -1.6428340630    -0.4985248654
Bq         1.3002181097    -1.5946375716    -0.4864082402
Bq         1.2947148730    -1.5464410803    -0.4742916149
Bq         1.2892116363    -1.4982445889    -0.4621749897
Bq         1.2837083996    -1.4500480976    -0.4500583645
Bq         1.2782051630    -1.4018516062    -0.4379417392
Bq         1.2727019263    -1.3536551149    -0.4258251140
Bq         1.2671986896    -1.3054586235    -0.4137084888
Bq         1.2616954529    -1.2572621321    -0.4015918635
Bq         1.2561922162    -1.2090656408    -0.3894752383
Bq         1.2506889795    -1.1608691494    -0.3773586131
Bq         1.2451857428    -1.1126726581    -0.3652419879
Bq         1.2396825062    -1.0644761667    -0.3531253626
Bq         1.2341792695    -1.0162796754    -0.3410087374
Bq         1.2286760328    -0.9680831840    -0.3288921122
Bq         1.2231727961    -0.9198866927    -0.3167754869
Bq         1.2176695594    -0.8716902013    -0.3046588617
Bq         1.2121663227    -0.8234937099    -0.2925422365
Bq         1.2066630860    -0.7752972186    -0.2804256113
Bq         1.2011598494    -0.7271007272    -0.2683089860
Bq         1.1956566127    -0.6789042359    -0.2561923608
Bq         1.1901533760    -0.6307077445    -0.2440757356
Bq         1.1846501393    -0.5825112532    -0.2319591103
Bq         1.1791469026    -0.5343147618    -0.2198424851
Bq         1.1736436659    -0.4861182704    -0.2077258599
Bq         1.1681404292    -0.4379217791    -0.1956092347
Bq         1.1626371925    -0.3897252877    -0.1834926094
Bq         1.1571339559    -0.3415287964    -0.1713759842
Bq         1.1516307192    -0.2933323050    -0.1592593590
Bq         1.1461274825    -0.2451358137    -0.1471427337
Bq         1.1406242458    -0.1969393223    -0.1350261085
Bq         1.1351210091    -0.1487428310    -0.1229094833
Bq         1.1296177724    -0.1005463396    -0.1107928581
Bq         1.1241145357    -0.0523498482    -0.0986762328
Bq         1.1186112991    -0.0041533569    -0.0865596076
Bq         1.1131080624     0.0440431345    -0.0744429824
Bq         1.7089561676    -4.7756060011    -1.2654288115
Bq         1.7034529309    -4.7274095098    -1.2533121862
Bq         1.6979496943    -4.6792130184    -1.2411955610
Bq         1.6924464576    -4.6310165271    -1.2290789358
Bq         1.6869432209    -4.5828200357    -1.2169623105
Bq         1.6814399842    -4.5346235444    -1.2048456853
Bq         1.6759367475    -4.4864270530    -1.1927290601
Bq         1.6704335108    -4.4382305616    -1.1806124348
Bq         1.6649302741    -4.3900340703    -1.1684958096
Bq         1.6594270375    -4.3418375789    -1.1563791844
Bq         1.6539238008    -4.2936410876    -1.1442625592
Bq         1.6484205641    -4.2454445962    -1.1321459339
Bq         1.6429173274    -4.1972481049    -1.1200293087
Bq         1.6374140907    -4.1490516135    -1.1079126835
Bq         1.6319108540    -4.1008551222    -1.0957960582
Bq         1.6264076173    -4.0526586308    -1.0836794330
Bq         1.6209043807    -4.0044621394    -1.0715628078
Bq         1.6154011440    -3.9562656481    -1.0594461826
Bq         1.6098979073    -3.9080691567    -1.0473295573
Bq         1.6043946706    -3.8598726654    -1.0352129321
Bq         1.5988914339    -3.8116761740    -1.0230963069
Bq         1.5933881972    -3.7634796827    -1.0109796816
Bq         1.5878849605    -3.7152831913    -0.9988630564
Bq         1.5823817239    -3.6670866999    -0.9867464312
Bq         1.5768784872    -3.6188902086    -0.9746298060
Bq         1.5713752505    -3.5706937172    -0.9625131807
Bq         1.5658720138    -3.5224972259    -0.9503965555
Bq         1.5603687771    -3.4743007345    -0.9382799303
Bq         1.5548655404    -3.4261042432    -0.9261633050
Bq         1.5493623037    -3.3779077518    -0.9140466798
Bq         1.5438590671    -3.3297112605    -0.9019300546
Bq         1.5383558304    -3.2815147691    -0.8898134294
Bq         1.5328525937    -3.2333182777    -0.8776968041
Bq         1.5273493570    -3.1851217864    -0.8655801789
Bq         1.5218461203    -3.1369252950    -0.8534635537
Bq         1.5163428836    -3.0887288037    -0.8413469284
Bq         1.5108396469    -3.0405323123    -0.8292303032
Bq         1.5053364103    -2.9923358210    -0.8171136780
Bq         1.4998331736    -2.9441393296    -0.8049970527
Bq         1.4943299369    -2.8959428383    -0.7928804275
Bq         1.4888267002    -2.8477463469    -0.7807638023
Bq         1.4833234635    -2.7995498555    -0.7686471771
Bq         1.4778202268    -2.7513533642    -0.7565305518
Bq         1.4723169901    -2.7031568728    -0.7444139266
Bq         1.4668137534    -2.6549603815    -0.7322973014
Bq         1.4613105168    -2.6067638901    -0.7201806761
Bq         1.4558072801    -2.5585673988    -0.7080640509
Bq         1.4503040434    -2.5103709074    -0.6959474257
Bq         1.4448008067    -2.4621744160    -0.6838308005
Bq         1.4392975700    -2.4139779247    -0.6717141752
Bq         1.4337943333    -2.3657814333    -0.6595975500
Bq         1.4282910966    -2.3175849420    -0.6474809248
Bq         1.4227878600    -2.2693884506    -0.6353642995
Bq         1.4172846233    -2.2211919593    -0.6232476743
Bq         1.4117813866    -2.1729954679    -0.6111310491
Bq         1.4062781499    -2.1247989766    -0.5990144239
Bq         1.4007749132    -2.0766024852    -0.5868977986
Bq         1.3952716765    -2.0284059938    -0.5747811734
Bq         1.3897684398    -1.9802095025    -0.5626645482
Bq         1.3842652032    -1.9320130111    -0.5505479229
Bq         1.3787619665    -1.8838165198    -0.5384312977
Bq         1.3732587298    -1.8356200284    -0.5263146725
Bq         1.3677554931    -1.7874235371    -0.5141980473
Bq         1.3622522564    -1.7392270457    -0.5020814220
Bq         1.3567490197    -1.6910305543    -0.4899647968
Bq         1.3512457830    -1.6428340630    -0.4778481716
Bq         1.3457425464    -1.5946375716    -0.4657315463
Bq         1.3402393097    -1.5464410803    -0.4536149211
Bq         1.3347360730    -1.4982445889    -0.4414982959
Bq         1.3292328363    -1.4500480976    -0.4293816706
Bq         1.3237295996    -1.4018516062    -0.4172650454
Bq         1.3182263629    -1.3536551149    -0.4051484202
Bq         1.3127231262    -1.3054586235    -0.3930317950
Bq         1.3072198896    -1.2572621321    -0.3809151697
Bq         1.3017166529    -1.2090656408    -0.3687985445
Bq         1.2962134162    -1.1608691494    -0.3566819193
Bq         1.2907101795    -1.1126726581    -0.3445652940
Bq         1.2852069428    -1.0644761667    -0.3324486688
Bq         1.2797037061    -1.0162796754    -0.3203320436
Bq         1.2742004694    -0.9680831840    -0.3082154184
Bq         1.2686972328    -0.9198866927    -0.2960987931
Bq         1.2631939961    -0.8716902013    -0.2839821679
Bq         1.2576907594    -0.8234937099    -0.2718655427
Bq         1.2521875227    -0.7752972186    -0.2597489174
Bq         1.2466842860    -0.7271007272    -0.2476322922
Bq         1.2411810493    -0.6789042359    -0.2355156670
Bq         1.2356778126    -0.6307077445    -0.2233990418
Bq         1.2301745759    -0.5825112532    -0.2112824165
Bq         1.2246713393    -0.5343147618    -0.1991657913
Bq         1.2191681026    -0.4861182704    -0.1870491661
Bq         1.2136648659    -0.4379217791    -0.1749325408
Bq         1.2081616292    -0.3897252877    -0.1628159156
Bq         1.2026583925    -0.3415287964    -0.1506992904
Bq         1.1971551558    -0.2933323050    -0.1385826652
Bq         1.1916519191    -0.2451358137    -0.1264660399
Bq         1.1861486825    -0.1969393223    -0.1143494147
Bq         1.1806454458    -0.1487428310    -0.1022327895
Bq         1.1751422091    -0.1005463396    -0.0901161642
Bq         1.1696389724    -0.0523498482    -0.0779995390
Bq         1.1641357357    -0.0041533569    -0.0658829138
Bq         1.1586324990     0.0440431345    -0.0537662885
Bq         1.7544806043    -4.7756060011    -1.2447521176
Bq         1.7489773676    -4.7274095098    -1.2326354924
Bq         1.7434741309    -4.6792130184    -1.2205188672
Bq         1.7379708942    -4.6310165271    -1.2084022419
Bq         1.7324676575    -4.5828200357    -1.1962856167
Bq         1.7269644209    -4.5346235444    -1.1841689915
Bq         1.7214611842    -4.4864270530    -1.1720523663
Bq         1.7159579475    -4.4382305616    -1.1599357410
Bq         1.7104547108    -4.3900340703    -1.1478191158
Bq         1.7049514741    -4.3418375789    -1.1357024906
Bq         1.6994482374    -4.2936410876    -1.1235858653
Bq         1.6939450007    -4.2454445962    -1.1114692401
Bq         1.6884417641    -4.1972481049    -1.0993526149
Bq         1.6829385274    -4.1490516135    -1.0872359897
Bq         1.6774352907    -4.1008551222    -1.0751193644
Bq         1.6719320540    -4.0526586308    -1.0630027392
Bq         1.6664288173    -4.0044621394    -1.0508861140
Bq         1.6609255806    -3.9562656481    -1.0387694887
Bq         1.6554223439    -3.9080691567    -1.0266528635
Bq         1.6499191073    -3.8598726654    -1.0145362383
Bq         1.6444158706    -3.8116761740    -1.0024196131
Bq         1.6389126339    -3.7634796827    -0.9903029878
Bq         1.6334093972    -3.7152831913    -0.9781863626
Bq         1.6279061605    -3.6670866999    -0.9660697374
Bq         1.6224029238    -3.6188902086    -0.9539531121
Bq         1.6168996871    -3.5706937172    -0.9418364869
Bq         1.6113964505    -3.5224972259    -0.9297198617
Bq         1.6058932138    -3.4743007345    -0.9176032365
Bq         1.6003899771    -3.4261042432    -0.9054866112
Bq         1.5948867404    -3.3779077518    -0.8933699860
Bq         1.5893835037    -3.3297112605    -0.8812533608
Bq         1.5838802670    -3.2815147691    -0.8691367355
Bq         1.5783770303    -3.2333182777    -0.8570201103
Bq         1.5728737937    -3.1851217864    -0.8449034851
Bq         1.5673705570    -3.1369252950    -0.8327868598
Bq         1.5618673203    -3.0887288037    -0.8206702346
Bq         1.5563640836    -3.0405323123    -0.8085536094
Bq         1.5508608469    -2.9923358210    -0.7964369842
Bq         1.5453576102    -2.9441393296    -0.7843203589
Bq         1.5398543735    -2.8959428383    -0.7722037337
Bq         1.5343511369    -2.8477463469    -0.7600871085
Bq         1.5288479002    -2.7995498555    -0.7479704832
Bq         1.5233446635    -2.7513533642    -0.7358538580
Bq         1.5178414268    -2.7031568728    -0.7237372328
Bq         1.5123381901    -2.6549603815    -0.7116206076
Bq         1.5068349534    -2.6067638901    -0.6995039823
Bq         1.5013317167    -2.5585673988    -0.6873873571
Bq         1.4958284800    -2.5103709074    -0.6752707319

1
2
3
4
5
6
7
8
9
10
11
12
13
14
15
16
17
18
19
20
21
22
23
24
25
26
27
28
29
30
31
32
33
34
35
36
37
38
39
40
41
42
43
44
45
46
47
48
49
50
51
52
53
54
55
56
57
58
59
60
61
62
63
64
65
66
67
68
69
70
71
72
73
74
75
76
77
78
79
80
81
82
83
84
85
86
87
88
89
90
91
92
93
94
95
96
97
98
99
100
101
102
103
104
105
106
107
108
109
110
111
112
113
114
115
116
117
118
119
120
121
122
123
124
125
126
127
128
129
130
131
132
133
134
135
136
137
138
139
140
141
142
143
144
145
146
147
148
149
150
151
152
153
154
155
156
157
158
159
160
161
162
163
164
165
166
167
168
169
170
171
172
173
174
175
176
177
178
179
180
181
182
183
184
185
186
187
188
189
190
191
192
193
194
195
196
197
198
199
200
201
202
203
204
205
206
207
208
209
210
211
212
213
214
215
216
217
218
219
220
221
222
223
224
225
226
227
228
229
230
231
232
233
234
235
236

