%nproc=8
%mem=1000MB
# rb3lyp/6-311+g** NMR geom=connectivity

Title

0 1
C    -4.0500558   -0.5771862    0.8136712
H    -5.0263804   -1.0082727    1.0024760
C    -3.9381552    0.6617804    0.2400876
H    -4.8252424    1.2338890   -0.0111295
C    -2.6768410    1.2433246    0.0057578
C    -1.4974121    0.5051527    0.2848253
C    -1.6508332   -0.7338728    0.9404026
H    -0.7713646   -1.2730967    1.2633753
C    -2.8898548   -1.2624035    1.1994307
H    -2.9683706   -2.2124563    1.7152676
C    -2.5773185    2.5963696   -0.4192930
H    -3.4870728    3.1412239   -0.6474055
C    -1.3741895    3.2147896   -0.4364030
H    -1.2997315    4.2742019   -0.6578144
C    -0.1719488    2.4994090   -0.1734588
C    -0.2043917    1.1018437    0.0192689
C     1.0513491    3.2042560   -0.0676222
H     1.0427344    4.2819499   -0.1896997
C     2.1942091    2.5487446    0.2579577
H     3.1168527    3.0912848    0.4334727
C     2.2216473    1.1336562    0.2934990
C     1.0486931    0.3945528    0.0302412
C     3.4483363    0.4614633    0.5573939
H     4.3095794    1.0606054    0.8334846
C     3.5427346   -0.8855926    0.4749463
H     4.4731467   -1.3939704    0.7038822
C     2.4490052   -1.6474447   -0.0196319
C     1.2150704   -1.0057258   -0.3013573
C     0.2531113   -1.7434440   -1.0216591
H    -0.6541356   -1.2535051   -1.3462847
C     0.4494193   -3.0628597   -1.3413779
H    -0.3083162   -3.5944309   -1.9054060
C     1.6251726   -3.7207967   -0.9552541
H     1.7670048   -4.7687404   -1.1927019
C     2.6109872   -3.0144177   -0.3183050
H     3.5525612   -3.4902813   -0.0646367
Bq         1.8715571560     0.1377489761     0.1107348402
Bq         1.8697116307     0.1872403232     0.1176051100
Bq         1.8678661054     0.2367316702     0.1244753797
Bq         1.8660205802     0.2862230172     0.1313456495
Bq         1.8641750549     0.3357143642     0.1382159193
Bq         1.8623295296     0.3852057112     0.1450861891
Bq         1.8604840044     0.4346970583     0.1519564589
Bq         1.8586384791     0.4841884053     0.1588267286
Bq         1.8567929538     0.5336797523     0.1656969984
Bq         1.8549474286     0.5831710993     0.1725672682
Bq         1.8531019033     0.6326624463     0.1794375380
Bq         1.8512563780     0.6821537933     0.1863078078
Bq         1.8494108528     0.7316451404     0.1931780775
Bq         1.8475653275     0.7811364874     0.2000483473
Bq         1.8457198022     0.8306278344     0.2069186171
Bq         1.8438742770     0.8801191814     0.2137888869
Bq         1.8420287517     0.9296105284     0.2206591567
Bq         1.8401832264     0.9791018754     0.2275294264
Bq         1.8383377012     1.0285932225     0.2343996962
Bq         1.8364921759     1.0780845695     0.2412699660
Bq         1.8346466506     1.1275759165     0.2481402358
Bq         1.8328011254     1.1770672635     0.2550105056
Bq         1.8309556001     1.2265586105     0.2618807753
Bq         1.8291100748     1.2760499576     0.2687510451
Bq         1.8272645496     1.3255413046     0.2756213149
Bq         1.8254190243     1.3750326516     0.2824915847
Bq         1.8235734990     1.4245239986     0.2893618545
Bq         1.8217279738     1.4740153456     0.2962321242
Bq         1.8198824485     1.5235066926     0.3031023940
Bq         1.8180369232     1.5729980397     0.3099726638
Bq         1.8161913980     1.6224893867     0.3168429336
Bq         1.8143458727     1.6719807337     0.3237132033
Bq         1.8125003474     1.7214720807     0.3305834731
Bq         1.8106548221     1.7709634277     0.3374537429
Bq         1.8088092969     1.8204547748     0.3443240127
Bq         1.8069637716     1.8699461218     0.3511942825
Bq         1.8051182463     1.9194374688     0.3580645522
Bq         1.8032727211     1.9689288158     0.3649348220
Bq         1.8014271958     2.0184201628     0.3718050918
Bq         1.7995816705     2.0679115098     0.3786753616
Bq         1.7977361453     2.1174028569     0.3855456314
Bq         1.7958906200     2.1668942039     0.3924159011
Bq         1.7940450947     2.2163855509     0.3992861709
Bq         2.0268857465    -2.7327491509    -0.2747694161
Bq         2.0250402213    -2.6832578039    -0.2678991463
Bq         2.0231946960    -2.6337664569    -0.2610288766
Bq         2.0213491707    -2.5842751098    -0.2541586068
Bq         2.0195036455    -2.5347837628    -0.2472883370
Bq         2.0176581202    -2.4852924158    -0.2404180672
Bq         2.0158125949    -2.4358010688    -0.2335477975
Bq         2.0139670697    -2.3863097218    -0.2266775277
Bq         2.0121215444    -2.3368183748    -0.2198072579
Bq         2.0102760191    -2.2873270277    -0.2129369881
Bq         2.0084304939    -2.2378356807    -0.2060667183
Bq         2.0065849686    -2.1883443337    -0.1991964486
Bq         2.0047394433    -2.1388529867    -0.1923261788
Bq         2.0028939181    -2.0893616397    -0.1854559090
Bq         2.0010483928    -2.0398702926    -0.1785856392
Bq         1.9992028675    -1.9903789456    -0.1717153694
Bq         1.9973573422    -1.9408875986    -0.1648450997
Bq         1.9955118170    -1.8913962516    -0.1579748299
Bq         1.9936662917    -1.8419049046    -0.1511045601
Bq         1.9918207664    -1.7924135576    -0.1442342903
Bq         1.9899752412    -1.7429222105    -0.1373640205
Bq         1.9881297159    -1.6934308635    -0.1304937508
Bq         1.9862841906    -1.6439395165    -0.1236234810
Bq         1.9844386654    -1.5944481695    -0.1167532112
Bq         1.9825931401    -1.5449568225    -0.1098829414
Bq         1.9807476148    -1.4954654754    -0.1030126716
Bq         1.9789020896    -1.4459741284    -0.0961424019
Bq         1.9770565643    -1.3964827814    -0.0892721321
Bq         1.9752110390    -1.3469914344    -0.0824018623
Bq         1.9733655138    -1.2975000874    -0.0755315925
Bq         1.9715199885    -1.2480087404    -0.0686613227
Bq         1.9696744632    -1.1985173933    -0.0617910530
Bq         1.9678289380    -1.1490260463    -0.0549207832
Bq         1.9659834127    -1.0995346993    -0.0480505134
Bq         1.9641378874    -1.0500433523    -0.0411802436
Bq         1.9622923622    -1.0005520053    -0.0343099738
Bq         1.9604468369    -0.9510606583    -0.0274397041
Bq         1.9586013116    -0.9015693112    -0.0205694343
Bq         1.9567557864    -0.8520779642    -0.0136991645
Bq         1.9549102611    -0.8025866172    -0.0068288947
Bq         1.9530647358    -0.7530952702     0.0000413750
Bq         1.9512192106    -0.7036039232     0.0069116448
Bq         1.9493736853    -0.6541125761     0.0137819146
Bq         1.9475281600    -0.6046212291     0.0206521844
Bq         1.9456826348    -0.5551298821     0.0275224542
Bq         1.9438371095    -0.5056385351     0.0343927239
Bq         1.9419915842    -0.4561471881     0.0412629937
Bq         1.9401460590    -0.4066558411     0.0481332635
Bq         1.9383005337    -0.3571644940     0.0550035333
Bq         1.9364550084    -0.3076731470     0.0618738031
Bq         1.9346094831    -0.2581818000     0.0687440728
Bq         1.9327639579    -0.2086904530     0.0756143426
Bq         1.9309184326    -0.1591991060     0.0824846124
Bq         1.9290729073    -0.1097077589     0.0893548822
Bq         1.9272273821    -0.0602164119     0.0962251520
Bq         1.9253818568    -0.0107250649     0.1030954217
Bq         1.9235363315     0.0387662821     0.1099656915
Bq         1.9216908063     0.0882576291     0.1168359613
Bq         1.9198452810     0.1377489761     0.1237062311
Bq         1.9179997557     0.1872403232     0.1305765009
Bq         1.9161542305     0.2367316702     0.1374467706
Bq         1.9143087052     0.2862230172     0.1443170404
Bq         1.9124631799     0.3357143642     0.1511873102
Bq         1.9106176547     0.3852057112     0.1580575800
Bq         1.9087721294     0.4346970583     0.1649278498
Bq         1.9069266041     0.4841884053     0.1717981195
Bq         1.9050810789     0.5336797523     0.1786683893
Bq         1.9032355536     0.5831710993     0.1855386591
Bq         1.9013900283     0.6326624463     0.1924089289
Bq         1.8995445031     0.6821537933     0.1992791987
Bq         1.8976989778     0.7316451404     0.2061494684
Bq         1.8958534525     0.7811364874     0.2130197382
Bq         1.8940079273     0.8306278344     0.2198900080
Bq         1.8921624020     0.8801191814     0.2267602778
Bq         1.8903168767     0.9296105284     0.2336305476
Bq         1.8884713515     0.9791018754     0.2405008173
Bq         1.8866258262     1.0285932225     0.2473710871
Bq         1.8847803009     1.0780845695     0.2542413569
Bq         1.8829347757     1.1275759165     0.2611116267
Bq         1.8810892504     1.1770672635     0.2679818964
Bq         1.8792437251     1.2265586105     0.2748521662
Bq         1.8773981998     1.2760499576     0.2817224360
Bq         1.8755526746     1.3255413046     0.2885927058
Bq         1.8737071493     1.3750326516     0.2954629756
Bq         1.8718616240     1.4245239986     0.3023332453
Bq         1.8700160988     1.4740153456     0.3092035151
Bq         1.8681705735     1.5235066926     0.3160737849
Bq         1.8663250482     1.5729980397     0.3229440547
Bq         1.8644795230     1.6224893867     0.3298143245
Bq         1.8626339977     1.6719807337     0.3366845942
Bq         1.8607884724     1.7214720807     0.3435548640
Bq         1.8589429472     1.7709634277     0.3504251338
Bq         1.8570974219     1.8204547748     0.3572954036
Bq         1.8552518966     1.8699461218     0.3641656734
Bq         1.8534063714     1.9194374688     0.3710359431
Bq         1.8515608461     1.9689288158     0.3779062129
Bq         1.8497153208     2.0184201628     0.3847764827
Bq         1.8478697956     2.0679115098     0.3916467525
Bq         1.8460242703     2.1174028569     0.3985170223
Bq         1.8441787450     2.1668942039     0.4053872920
Bq         1.8423332198     2.2163855509     0.4122575618
Bq         2.0751738716    -2.7327491509    -0.2617980252
Bq         2.0733283463    -2.6832578039    -0.2549277555
Bq         2.0714828210    -2.6337664569    -0.2480574857
Bq         2.0696372958    -2.5842751098    -0.2411872159
Bq         2.0677917705    -2.5347837628    -0.2343169461
Bq         2.0659462452    -2.4852924158    -0.2274466763
Bq         2.0641007199    -2.4358010688    -0.2205764066
Bq         2.0622551947    -2.3863097218    -0.2137061368
Bq         2.0604096694    -2.3368183748    -0.2068358670
Bq         2.0585641441    -2.2873270277    -0.1999655972
Bq         2.0567186189    -2.2378356807    -0.1930953274
Bq         2.0548730936    -2.1883443337    -0.1862250577
Bq         2.0530275683    -2.1388529867    -0.1793547879
Bq         2.0511820431    -2.0893616397    -0.1724845181
Bq         2.0493365178    -2.0398702926    -0.1656142483
Bq         2.0474909925    -1.9903789456    -0.1587439785
Bq         2.0456454673    -1.9408875986    -0.1518737088
Bq         2.0437999420    -1.8913962516    -0.1450034390
Bq         2.0419544167    -1.8419049046    -0.1381331692
Bq         2.0401088915    -1.7924135576    -0.1312628994
Bq         2.0382633662    -1.7429222105    -0.1243926296
Bq         2.0364178409    -1.6934308635    -0.1175223599
Bq         2.0345723157    -1.6439395165    -0.1106520901
Bq         2.0327267904    -1.5944481695    -0.1037818203
Bq         2.0308812651    -1.5449568225    -0.0969115505
Bq         2.0290357399    -1.4954654754    -0.0900412807
Bq         2.0271902146    -1.4459741284    -0.0831710110
Bq         2.0253446893    -1.3964827814    -0.0763007412
Bq         2.0234991641    -1.3469914344    -0.0694304714
Bq         2.0216536388    -1.2975000874    -0.0625602016
Bq         2.0198081135    -1.2480087404    -0.0556899319
Bq         2.0179625883    -1.1985173933    -0.0488196621
Bq         2.0161170630    -1.1490260463    -0.0419493923
Bq         2.0142715377    -1.0995346993    -0.0350791225
Bq         2.0124260125    -1.0500433523    -0.0282088527
Bq         2.0105804872    -1.0005520053    -0.0213385830
Bq         2.0087349619    -0.9510606583    -0.0144683132
Bq         2.0068894367    -0.9015693112    -0.0075980434
Bq         2.0050439114    -0.8520779642    -0.0007277736
Bq         2.0031983861    -0.8025866172     0.0061424962
Bq         2.0013528608    -0.7530952702     0.0130127659
Bq         1.9995073356    -0.7036039232     0.0198830357
Bq         1.9976618103    -0.6541125761     0.0267533055
Bq         1.9958162850    -0.6046212291     0.0336235753
Bq         1.9939707598    -0.5551298821     0.0404938451
Bq         1.9921252345    -0.5056385351     0.0473641148
Bq         1.9902797092    -0.4561471881     0.0542343846
Bq         1.9884341840    -0.4066558411     0.0611046544
Bq         1.9865886587    -0.3571644940     0.0679749242
Bq         1.9847431334    -0.3076731470     0.0748451940
Bq         1.9828976082    -0.2581818000     0.0817154637
Bq         1.9810520829    -0.2086904530     0.0885857335
Bq         1.9792065576    -0.1591991060     0.0954560033
Bq         1.9773610324    -0.1097077589     0.1023262731
Bq         1.9755155071    -0.0602164119     0.1091965429
Bq         1.9736699818    -0.0107250649     0.1160668126

1
2
3
4
5
6
7
8
9
10
11
12
13
14
15
16
17
18
19
20
21
22
23
24
25
26
27
28
29
30
31
32
33
34
35
36
37
38
39
40
41
42
43
44
45
46
47
48
49
50
51
52
53
54
55
56
57
58
59
60
61
62
63
64
65
66
67
68
69
70
71
72
73
74
75
76
77
78
79
80
81
82
83
84
85
86
87
88
89
90
91
92
93
94
95
96
97
98
99
100
101
102
103
104
105
106
107
108
109
110
111
112
113
114
115
116
117
118
119
120
121
122
123
124
125
126
127
128
129
130
131
132
133
134
135
136
137
138
139
140
141
142
143
144
145
146
147
148
149
150
151
152
153
154
155
156
157
158
159
160
161
162
163
164
165
166
167
168
169
170
171
172
173
174
175
176
177
178
179
180
181
182
183
184
185
186
187
188
189
190
191
192
193
194
195
196
197
198
199
200
201
202
203
204
205
206
207
208
209
210
211
212
213
214
215
216
217
218
219
220
221
222
223
224
225
226
227
228
229
230
231
232
233
234
235
236

