%nproc=8
%mem=1000MB
# rb3lyp/6-311+g** NMR geom=connectivity

Title

0 1
C    -4.0500558   -0.5771862    0.8136712
H    -5.0263804   -1.0082727    1.0024760
C    -3.9381552    0.6617804    0.2400876
H    -4.8252424    1.2338890   -0.0111295
C    -2.6768410    1.2433246    0.0057578
C    -1.4974121    0.5051527    0.2848253
C    -1.6508332   -0.7338728    0.9404026
H    -0.7713646   -1.2730967    1.2633753
C    -2.8898548   -1.2624035    1.1994307
H    -2.9683706   -2.2124563    1.7152676
C    -2.5773185    2.5963696   -0.4192930
H    -3.4870728    3.1412239   -0.6474055
C    -1.3741895    3.2147896   -0.4364030
H    -1.2997315    4.2742019   -0.6578144
C    -0.1719488    2.4994090   -0.1734588
C    -0.2043917    1.1018437    0.0192689
C     1.0513491    3.2042560   -0.0676222
H     1.0427344    4.2819499   -0.1896997
C     2.1942091    2.5487446    0.2579577
H     3.1168527    3.0912848    0.4334727
C     2.2216473    1.1336562    0.2934990
C     1.0486931    0.3945528    0.0302412
C     3.4483363    0.4614633    0.5573939
H     4.3095794    1.0606054    0.8334846
C     3.5427346   -0.8855926    0.4749463
H     4.4731467   -1.3939704    0.7038822
C     2.4490052   -1.6474447   -0.0196319
C     1.2150704   -1.0057258   -0.3013573
C     0.2531113   -1.7434440   -1.0216591
H    -0.6541356   -1.2535051   -1.3462847
C     0.4494193   -3.0628597   -1.3413779
H    -0.3083162   -3.5944309   -1.9054060
C     1.6251726   -3.7207967   -0.9552541
H     1.7670048   -4.7687404   -1.1927019
C     2.6109872   -3.0144177   -0.3183050
H     3.5525612   -3.4902813   -0.0646367
Bq         0.3675476473     1.6224893867    -0.0722987933
Bq         0.3657021220     1.6719807337    -0.0654285235
Bq         0.3638565967     1.7214720807    -0.0585582537
Bq         0.3620110715     1.7709634277    -0.0516879839
Bq         0.3601655462     1.8204547748    -0.0448177141
Bq         0.3583200209     1.8699461218    -0.0379474444
Bq         0.3564744956     1.9194374688    -0.0310771746
Bq         0.3546289704     1.9689288158    -0.0242069048
Bq         0.3527834451     2.0184201628    -0.0173366350
Bq         0.3509379198     2.0679115098    -0.0104663653
Bq         0.3490923946     2.1174028569    -0.0035960955
Bq         0.3472468693     2.1668942039     0.0032741743
Bq         0.3454013440     2.2163855509     0.0101444441
Bq         0.5782419958    -2.7327491509    -0.6639111430
Bq         0.5763964706    -2.6832578039    -0.6570408732
Bq         0.5745509453    -2.6337664569    -0.6501706034
Bq         0.5727054200    -2.5842751098    -0.6433003336
Bq         0.5708598948    -2.5347837628    -0.6364300638
Bq         0.5690143695    -2.4852924158    -0.6295597941
Bq         0.5671688442    -2.4358010688    -0.6226895243
Bq         0.5653233190    -2.3863097218    -0.6158192545
Bq         0.5634777937    -2.3368183748    -0.6089489847
Bq         0.5616322684    -2.2873270277    -0.6020787149
Bq         0.5597867432    -2.2378356807    -0.5952084452
Bq         0.5579412179    -2.1883443337    -0.5883381754
Bq         0.5560956926    -2.1388529867    -0.5814679056
Bq         0.5542501674    -2.0893616397    -0.5745976358
Bq         0.5524046421    -2.0398702926    -0.5677273661
Bq         0.5505591168    -1.9903789456    -0.5608570963
Bq         0.5487135916    -1.9408875986    -0.5539868265
Bq         0.5468680663    -1.8913962516    -0.5471165567
Bq         0.5450225410    -1.8419049046    -0.5402462869
Bq         0.5431770157    -1.7924135576    -0.5333760172
Bq         0.5413314905    -1.7429222105    -0.5265057474
Bq         0.5394859652    -1.6934308635    -0.5196354776
Bq         0.5376404399    -1.6439395165    -0.5127652078
Bq         0.5357949147    -1.5944481695    -0.5058949380
Bq         0.5339493894    -1.5449568225    -0.4990246683
Bq         0.5321038641    -1.4954654754    -0.4921543985
Bq         0.5302583389    -1.4459741284    -0.4852841287
Bq         0.5284128136    -1.3964827814    -0.4784138589
Bq         0.5265672883    -1.3469914344    -0.4715435891
Bq         0.5247217631    -1.2975000874    -0.4646733194
Bq         0.5228762378    -1.2480087404    -0.4578030496
Bq         0.5210307125    -1.1985173933    -0.4509327798
Bq         0.5191851873    -1.1490260463    -0.4440625100
Bq         0.5173396620    -1.0995346993    -0.4371922402
Bq         0.5154941367    -1.0500433523    -0.4303219705
Bq         0.5136486115    -1.0005520053    -0.4234517007
Bq         0.5118030862    -0.9510606583    -0.4165814309
Bq         0.5099575609    -0.9015693112    -0.4097111611
Bq         0.5081120357    -0.8520779642    -0.4028408913
Bq         0.5062665104    -0.8025866172    -0.3959706216
Bq         0.5044209851    -0.7530952702    -0.3891003518
Bq         0.5025754599    -0.7036039232    -0.3822300820
Bq         0.5007299346    -0.6541125761    -0.3753598122
Bq         0.4988844093    -0.6046212291    -0.3684895424
Bq         0.4970388841    -0.5551298821    -0.3616192727
Bq         0.4951933588    -0.5056385351    -0.3547490029
Bq         0.4933478335    -0.4561471881    -0.3478787331
Bq         0.4915023083    -0.4066558411    -0.3410084633
Bq         0.4896567830    -0.3571644940    -0.3341381935
Bq         0.4878112577    -0.3076731470    -0.3272679238
Bq         0.4859657324    -0.2581818000    -0.3203976540
Bq         0.4841202072    -0.2086904530    -0.3135273842
Bq         0.4822746819    -0.1591991060    -0.3066571144
Bq         0.4804291566    -0.1097077589    -0.2997868447
Bq         0.4785836314    -0.0602164119    -0.2929165749
Bq         0.4767381061    -0.0107250649    -0.2860463051
Bq         0.4748925808     0.0387662821    -0.2791760353
Bq         0.4730470556     0.0882576291    -0.2723057655
Bq         0.4712015303     0.1377489761    -0.2654354958
Bq         0.4693560050     0.1872403232    -0.2585652260
Bq         0.4675104798     0.2367316702    -0.2516949562
Bq         0.4656649545     0.2862230172    -0.2448246864
Bq         0.4638194292     0.3357143642    -0.2379544166
Bq         0.4619739040     0.3852057112    -0.2310841469
Bq         0.4601283787     0.4346970583    -0.2242138771
Bq         0.4582828534     0.4841884053    -0.2173436073
Bq         0.4564373282     0.5336797523    -0.2104733375
Bq         0.4545918029     0.5831710993    -0.2036030677
Bq         0.4527462776     0.6326624463    -0.1967327980
Bq         0.4509007524     0.6821537933    -0.1898625282
Bq         0.4490552271     0.7316451404    -0.1829922584
Bq         0.4472097018     0.7811364874    -0.1761219886
Bq         0.4453641766     0.8306278344    -0.1692517188
Bq         0.4435186513     0.8801191814    -0.1623814491
Bq         0.4416731260     0.9296105284    -0.1555111793
Bq         0.4398276008     0.9791018754    -0.1486409095
Bq         0.4379820755     1.0285932225    -0.1417706397
Bq         0.4361365502     1.0780845695    -0.1349003699
Bq         0.4342910250     1.1275759165    -0.1280301002
Bq         0.4324454997     1.1770672635    -0.1211598304
Bq         0.4305999744     1.2265586105    -0.1142895606
Bq         0.4287544492     1.2760499576    -0.1074192908
Bq         0.4269089239     1.3255413046    -0.1005490210
Bq         0.4250633986     1.3750326516    -0.0936787513
Bq         0.4232178733     1.4245239986    -0.0868084815
Bq         0.4213723481     1.4740153456    -0.0799382117
Bq         0.4195268228     1.5235066926    -0.0730679419
Bq         0.4176812975     1.5729980397    -0.0661976722
Bq         0.4158357723     1.6224893867    -0.0593274024
Bq         0.4139902470     1.6719807337    -0.0524571326
Bq         0.4121447217     1.7214720807    -0.0455868628
Bq         0.4102991965     1.7709634277    -0.0387165930
Bq         0.4084536712     1.8204547748    -0.0318463233
Bq         0.4066081459     1.8699461218    -0.0249760535
Bq         0.4047626207     1.9194374688    -0.0181057837
Bq         0.4029170954     1.9689288158    -0.0112355139
Bq         0.4010715701     2.0184201628    -0.0043652441
Bq         0.3992260449     2.0679115098     0.0025050256
Bq         0.3973805196     2.1174028569     0.0093752954
Bq         0.3955349943     2.1668942039     0.0162455652
Bq         0.3936894691     2.2163855509     0.0231158350
Bq         0.6265301209    -2.7327491509    -0.6509397521
Bq         0.6246845956    -2.6832578039    -0.6440694823
Bq         0.6228390703    -2.6337664569    -0.6371992125
Bq         0.6209935451    -2.5842751098    -0.6303289427
Bq         0.6191480198    -2.5347837628    -0.6234586730
Bq         0.6173024945    -2.4852924158    -0.6165884032
Bq         0.6154569693    -2.4358010688    -0.6097181334
Bq         0.6136114440    -2.3863097218    -0.6028478636
Bq         0.6117659187    -2.3368183748    -0.5959775938
Bq         0.6099203934    -2.2873270277    -0.5891073241
Bq         0.6080748682    -2.2378356807    -0.5822370543
Bq         0.6062293429    -2.1883443337    -0.5753667845
Bq         0.6043838176    -2.1388529867    -0.5684965147
Bq         0.6025382924    -2.0893616397    -0.5616262449
Bq         0.6006927671    -2.0398702926    -0.5547559752
Bq         0.5988472418    -1.9903789456    -0.5478857054
Bq         0.5970017166    -1.9408875986    -0.5410154356
Bq         0.5951561913    -1.8913962516    -0.5341451658
Bq         0.5933106660    -1.8419049046    -0.5272748960
Bq         0.5914651408    -1.7924135576    -0.5204046263
Bq         0.5896196155    -1.7429222105    -0.5135343565
Bq         0.5877740902    -1.6934308635    -0.5066640867
Bq         0.5859285650    -1.6439395165    -0.4997938169
Bq         0.5840830397    -1.5944481695    -0.4929235471
Bq         0.5822375144    -1.5449568225    -0.4860532774
Bq         0.5803919892    -1.4954654754    -0.4791830076
Bq         0.5785464639    -1.4459741284    -0.4723127378
Bq         0.5767009386    -1.3964827814    -0.4654424680
Bq         0.5748554134    -1.3469914344    -0.4585721982
Bq         0.5730098881    -1.2975000874    -0.4517019285
Bq         0.5711643628    -1.2480087404    -0.4448316587
Bq         0.5693188376    -1.1985173933    -0.4379613889
Bq         0.5674733123    -1.1490260463    -0.4310911191
Bq         0.5656277870    -1.0995346993    -0.4242208493
Bq         0.5637822618    -1.0500433523    -0.4173505796
Bq         0.5619367365    -1.0005520053    -0.4104803098
Bq         0.5600912112    -0.9510606583    -0.4036100400
Bq         0.5582456860    -0.9015693112    -0.3967397702
Bq         0.5564001607    -0.8520779642    -0.3898695004
Bq         0.5545546354    -0.8025866172    -0.3829992307
Bq         0.5527091101    -0.7530952702    -0.3761289609
Bq         0.5508635849    -0.7036039232    -0.3692586911
Bq         0.5490180596    -0.6541125761    -0.3623884213
Bq         0.5471725343    -0.6046212291    -0.3555181516
Bq         0.5453270091    -0.5551298821    -0.3486478818
Bq         0.5434814838    -0.5056385351    -0.3417776120
Bq         0.5416359585    -0.4561471881    -0.3349073422
Bq         0.5397904333    -0.4066558411    -0.3280370724
Bq         0.5379449080    -0.3571644940    -0.3211668027
Bq         0.5360993827    -0.3076731470    -0.3142965329
Bq         0.5342538575    -0.2581818000    -0.3074262631
Bq         0.5324083322    -0.2086904530    -0.3005559933
Bq         0.5305628069    -0.1591991060    -0.2936857235
Bq         0.5287172817    -0.1097077589    -0.2868154538
Bq         0.5268717564    -0.0602164119    -0.2799451840
Bq         0.5250262311    -0.0107250649    -0.2730749142
Bq         0.5231807059     0.0387662821    -0.2662046444
Bq         0.5213351806     0.0882576291    -0.2593343746
Bq         0.5194896553     0.1377489761    -0.2524641049
Bq         0.5176441301     0.1872403232    -0.2455938351
Bq         0.5157986048     0.2367316702    -0.2387235653
Bq         0.5139530795     0.2862230172    -0.2318532955
Bq         0.5121075543     0.3357143642    -0.2249830257
Bq         0.5102620290     0.3852057112    -0.2181127560
Bq         0.5084165037     0.4346970583    -0.2112424862
Bq         0.5065709785     0.4841884053    -0.2043722164
Bq         0.5047254532     0.5336797523    -0.1975019466
Bq         0.5028799279     0.5831710993    -0.1906316768
Bq         0.5010344027     0.6326624463    -0.1837614071
Bq         0.4991888774     0.6821537933    -0.1768911373
Bq         0.4973433521     0.7316451404    -0.1700208675
Bq         0.4954978269     0.7811364874    -0.1631505977
Bq         0.4936523016     0.8306278344    -0.1562803279
Bq         0.4918067763     0.8801191814    -0.1494100582
Bq         0.4899612510     0.9296105284    -0.1425397884
Bq         0.4881157258     0.9791018754    -0.1356695186
Bq         0.4862702005     1.0285932225    -0.1287992488
Bq         0.4844246752     1.0780845695    -0.1219289791
Bq         0.4825791500     1.1275759165    -0.1150587093
Bq         0.4807336247     1.1770672635    -0.1081884395
Bq         0.4788880994     1.2265586105    -0.1013181697
Bq         0.4770425742     1.2760499576    -0.0944478999
Bq         0.4751970489     1.3255413046    -0.0875776302
Bq         0.4733515236     1.3750326516    -0.0807073604
Bq         0.4715059984     1.4245239986    -0.0738370906
Bq         0.4696604731     1.4740153456    -0.0669668208

1
2
3
4
5
6
7
8
9
10
11
12
13
14
15
16
17
18
19
20
21
22
23
24
25
26
27
28
29
30
31
32
33
34
35
36
37
38
39
40
41
42
43
44
45
46
47
48
49
50
51
52
53
54
55
56
57
58
59
60
61
62
63
64
65
66
67
68
69
70
71
72
73
74
75
76
77
78
79
80
81
82
83
84
85
86
87
88
89
90
91
92
93
94
95
96
97
98
99
100
101
102
103
104
105
106
107
108
109
110
111
112
113
114
115
116
117
118
119
120
121
122
123
124
125
126
127
128
129
130
131
132
133
134
135
136
137
138
139
140
141
142
143
144
145
146
147
148
149
150
151
152
153
154
155
156
157
158
159
160
161
162
163
164
165
166
167
168
169
170
171
172
173
174
175
176
177
178
179
180
181
182
183
184
185
186
187
188
189
190
191
192
193
194
195
196
197
198
199
200
201
202
203
204
205
206
207
208
209
210
211
212
213
214
215
216
217
218
219
220
221
222
223
224
225
226
227
228
229
230
231
232
233
234
235
236

