%nproc=8
%mem=1000MB
# rb3lyp/6-311+g** NMR geom=connectivity

Title

0 1
C    -4.0500558   -0.5771862    0.8136712
H    -5.0263804   -1.0082727    1.0024760
C    -3.9381552    0.6617804    0.2400876
H    -4.8252424    1.2338890   -0.0111295
C    -2.6768410    1.2433246    0.0057578
C    -1.4974121    0.5051527    0.2848253
C    -1.6508332   -0.7338728    0.9404026
H    -0.7713646   -1.2730967    1.2633753
C    -2.8898548   -1.2624035    1.1994307
H    -2.9683706   -2.2124563    1.7152676
C    -2.5773185    2.5963696   -0.4192930
H    -3.4870728    3.1412239   -0.6474055
C    -1.3741895    3.2147896   -0.4364030
H    -1.2997315    4.2742019   -0.6578144
C    -0.1719488    2.4994090   -0.1734588
C    -0.2043917    1.1018437    0.0192689
C     1.0513491    3.2042560   -0.0676222
H     1.0427344    4.2819499   -0.1896997
C     2.1942091    2.5487446    0.2579577
H     3.1168527    3.0912848    0.4334727
C     2.2216473    1.1336562    0.2934990
C     1.0486931    0.3945528    0.0302412
C     3.4483363    0.4614633    0.5573939
H     4.3095794    1.0606054    0.8334846
C     3.5427346   -0.8855926    0.4749463
H     4.4731467   -1.3939704    0.7038822
C     2.4490052   -1.6474447   -0.0196319
C     1.2150704   -1.0057258   -0.3013573
C     0.2531113   -1.7434440   -1.0216591
H    -0.6541356   -1.2535051   -1.3462847
C     0.4494193   -3.0628597   -1.3413779
H    -0.3083162   -3.5944309   -1.9054060
C     1.6251726   -3.7207967   -0.9552541
H     1.7670048   -4.7687404   -1.1927019
C     2.6109872   -3.0144177   -0.3183050
H     3.5525612   -3.4902813   -0.0646367
Bq         1.6710225548     0.3357143642     0.0863303557
Bq         1.6691770296     0.3852057112     0.0932006255
Bq         1.6673315043     0.4346970583     0.1000708953
Bq         1.6654859790     0.4841884053     0.1069411651
Bq         1.6636404537     0.5336797523     0.1138114348
Bq         1.6617949285     0.5831710993     0.1206817046
Bq         1.6599494032     0.6326624463     0.1275519744
Bq         1.6581038779     0.6821537933     0.1344222442
Bq         1.6562583527     0.7316451404     0.1412925140
Bq         1.6544128274     0.7811364874     0.1481627837
Bq         1.6525673021     0.8306278344     0.1550330535
Bq         1.6507217769     0.8801191814     0.1619033233
Bq         1.6488762516     0.9296105284     0.1687735931
Bq         1.6470307263     0.9791018754     0.1756438629
Bq         1.6451852011     1.0285932225     0.1825141326
Bq         1.6433396758     1.0780845695     0.1893844024
Bq         1.6414941505     1.1275759165     0.1962546722
Bq         1.6396486253     1.1770672635     0.2031249420
Bq         1.6378031000     1.2265586105     0.2099952118
Bq         1.6359575747     1.2760499576     0.2168654815
Bq         1.6341120495     1.3255413046     0.2237357513
Bq         1.6322665242     1.3750326516     0.2306060211
Bq         1.6304209989     1.4245239986     0.2374762909
Bq         1.6285754737     1.4740153456     0.2443465607
Bq         1.6267299484     1.5235066926     0.2512168304
Bq         1.6248844231     1.5729980397     0.2580871002
Bq         1.6230388979     1.6224893867     0.2649573700
Bq         1.6211933726     1.6719807337     0.2718276398
Bq         1.6193478473     1.7214720807     0.2786979095
Bq         1.6175023221     1.7709634277     0.2855681793
Bq         1.6156567968     1.8204547748     0.2924384491
Bq         1.6138112715     1.8699461218     0.2993087189
Bq         1.6119657463     1.9194374688     0.3061789887
Bq         1.6101202210     1.9689288158     0.3130492584
Bq         1.6082746957     2.0184201628     0.3199195282
Bq         1.6064291704     2.0679115098     0.3267897980
Bq         1.6045836452     2.1174028569     0.3336600678
Bq         1.6027381199     2.1668942039     0.3405303376
Bq         1.6008925946     2.2163855509     0.3474006073
Bq         1.8337332464    -2.7327491509    -0.3266549797
Bq         1.8318877212    -2.6832578039    -0.3197847099
Bq         1.8300421959    -2.6337664569    -0.3129144401
Bq         1.8281966706    -2.5842751098    -0.3060441704
Bq         1.8263511454    -2.5347837628    -0.2991739006
Bq         1.8245056201    -2.4852924158    -0.2923036308
Bq         1.8226600948    -2.4358010688    -0.2854333610
Bq         1.8208145696    -2.3863097218    -0.2785630913
Bq         1.8189690443    -2.3368183748    -0.2716928215
Bq         1.8171235190    -2.2873270277    -0.2648225517
Bq         1.8152779938    -2.2378356807    -0.2579522819
Bq         1.8134324685    -2.1883443337    -0.2510820121
Bq         1.8115869432    -2.1388529867    -0.2442117424
Bq         1.8097414180    -2.0893616397    -0.2373414726
Bq         1.8078958927    -2.0398702926    -0.2304712028
Bq         1.8060503674    -1.9903789456    -0.2236009330
Bq         1.8042048422    -1.9408875986    -0.2167306632
Bq         1.8023593169    -1.8913962516    -0.2098603935
Bq         1.8005137916    -1.8419049046    -0.2029901237
Bq         1.7986682664    -1.7924135576    -0.1961198539
Bq         1.7968227411    -1.7429222105    -0.1892495841
Bq         1.7949772158    -1.6934308635    -0.1823793143
Bq         1.7931316905    -1.6439395165    -0.1755090446
Bq         1.7912861653    -1.5944481695    -0.1686387748
Bq         1.7894406400    -1.5449568225    -0.1617685050
Bq         1.7875951147    -1.4954654754    -0.1548982352
Bq         1.7857495895    -1.4459741284    -0.1480279654
Bq         1.7839040642    -1.3964827814    -0.1411576957
Bq         1.7820585389    -1.3469914344    -0.1342874259
Bq         1.7802130137    -1.2975000874    -0.1274171561
Bq         1.7783674884    -1.2480087404    -0.1205468863
Bq         1.7765219631    -1.1985173933    -0.1136766165
Bq         1.7746764379    -1.1490260463    -0.1068063468
Bq         1.7728309126    -1.0995346993    -0.0999360770
Bq         1.7709853873    -1.0500433523    -0.0930658072
Bq         1.7691398621    -1.0005520053    -0.0861955374
Bq         1.7672943368    -0.9510606583    -0.0793252676
Bq         1.7654488115    -0.9015693112    -0.0724549979
Bq         1.7636032863    -0.8520779642    -0.0655847281
Bq         1.7617577610    -0.8025866172    -0.0587144583
Bq         1.7599122357    -0.7530952702    -0.0518441885
Bq         1.7580667105    -0.7036039232    -0.0449739187
Bq         1.7562211852    -0.6541125761    -0.0381036490
Bq         1.7543756599    -0.6046212291    -0.0312333792
Bq         1.7525301347    -0.5551298821    -0.0243631094
Bq         1.7506846094    -0.5056385351    -0.0174928396
Bq         1.7488390841    -0.4561471881    -0.0106225699
Bq         1.7469935589    -0.4066558411    -0.0037523001
Bq         1.7451480336    -0.3571644940     0.0031179697
Bq         1.7433025083    -0.3076731470     0.0099882395
Bq         1.7414569831    -0.2581818000     0.0168585093
Bq         1.7396114578    -0.2086904530     0.0237287790
Bq         1.7377659325    -0.1591991060     0.0305990488
Bq         1.7359204073    -0.1097077589     0.0374693186
Bq         1.7340748820    -0.0602164119     0.0443395884
Bq         1.7322293567    -0.0107250649     0.0512098582
Bq         1.7303838314     0.0387662821     0.0580801279
Bq         1.7285383062     0.0882576291     0.0649503977
Bq         1.7266927809     0.1377489761     0.0718206675
Bq         1.7248472556     0.1872403232     0.0786909373
Bq         1.7230017304     0.2367316702     0.0855612071
Bq         1.7211562051     0.2862230172     0.0924314768
Bq         1.7193106798     0.3357143642     0.0993017466
Bq         1.7174651546     0.3852057112     0.1061720164
Bq         1.7156196293     0.4346970583     0.1130422862
Bq         1.7137741040     0.4841884053     0.1199125560
Bq         1.7119285788     0.5336797523     0.1267828257
Bq         1.7100830535     0.5831710993     0.1336530955
Bq         1.7082375282     0.6326624463     0.1405233653
Bq         1.7063920030     0.6821537933     0.1473936351
Bq         1.7045464777     0.7316451404     0.1542639049
Bq         1.7027009524     0.7811364874     0.1611341746
Bq         1.7008554272     0.8306278344     0.1680044444
Bq         1.6990099019     0.8801191814     0.1748747142
Bq         1.6971643766     0.9296105284     0.1817449840
Bq         1.6953188514     0.9791018754     0.1886152538
Bq         1.6934733261     1.0285932225     0.1954855235
Bq         1.6916278008     1.0780845695     0.2023557933
Bq         1.6897822756     1.1275759165     0.2092260631
Bq         1.6879367503     1.1770672635     0.2160963329
Bq         1.6860912250     1.2265586105     0.2229666026
Bq         1.6842456998     1.2760499576     0.2298368724
Bq         1.6824001745     1.3255413046     0.2367071422
Bq         1.6805546492     1.3750326516     0.2435774120
Bq         1.6787091240     1.4245239986     0.2504476818
Bq         1.6768635987     1.4740153456     0.2573179515
Bq         1.6750180734     1.5235066926     0.2641882213
Bq         1.6731725481     1.5729980397     0.2710584911
Bq         1.6713270229     1.6224893867     0.2779287609
Bq         1.6694814976     1.6719807337     0.2847990307
Bq         1.6676359723     1.7214720807     0.2916693004
Bq         1.6657904471     1.7709634277     0.2985395702
Bq         1.6639449218     1.8204547748     0.3054098400
Bq         1.6620993965     1.8699461218     0.3122801098
Bq         1.6602538713     1.9194374688     0.3191503796
Bq         1.6584083460     1.9689288158     0.3260206493
Bq         1.6565628207     2.0184201628     0.3328909191
Bq         1.6547172955     2.0679115098     0.3397611889
Bq         1.6528717702     2.1174028569     0.3466314587
Bq         1.6510262449     2.1668942039     0.3535017285
Bq         1.6491807197     2.2163855509     0.3603719982
Bq         1.8820213715    -2.7327491509    -0.3136835888
Bq         1.8801758462    -2.6832578039    -0.3068133190
Bq         1.8783303209    -2.6337664569    -0.2999430493
Bq         1.8764847957    -2.5842751098    -0.2930727795
Bq         1.8746392704    -2.5347837628    -0.2862025097
Bq         1.8727937451    -2.4852924158    -0.2793322399
Bq         1.8709482199    -2.4358010688    -0.2724619701
Bq         1.8691026946    -2.3863097218    -0.2655917004
Bq         1.8672571693    -2.3368183748    -0.2587214306
Bq         1.8654116441    -2.2873270277    -0.2518511608
Bq         1.8635661188    -2.2378356807    -0.2449808910
Bq         1.8617205935    -2.1883443337    -0.2381106212
Bq         1.8598750682    -2.1388529867    -0.2312403515
Bq         1.8580295430    -2.0893616397    -0.2243700817
Bq         1.8561840177    -2.0398702926    -0.2174998119
Bq         1.8543384924    -1.9903789456    -0.2106295421
Bq         1.8524929672    -1.9408875986    -0.2037592723
Bq         1.8506474419    -1.8913962516    -0.1968890026
Bq         1.8488019166    -1.8419049046    -0.1900187328
Bq         1.8469563914    -1.7924135576    -0.1831484630
Bq         1.8451108661    -1.7429222105    -0.1762781932
Bq         1.8432653408    -1.6934308635    -0.1694079234
Bq         1.8414198156    -1.6439395165    -0.1625376537
Bq         1.8395742903    -1.5944481695    -0.1556673839
Bq         1.8377287650    -1.5449568225    -0.1487971141
Bq         1.8358832398    -1.4954654754    -0.1419268443
Bq         1.8340377145    -1.4459741284    -0.1350565745
Bq         1.8321921892    -1.3964827814    -0.1281863048
Bq         1.8303466640    -1.3469914344    -0.1213160350
Bq         1.8285011387    -1.2975000874    -0.1144457652
Bq         1.8266556134    -1.2480087404    -0.1075754954
Bq         1.8248100882    -1.1985173933    -0.1007052256
Bq         1.8229645629    -1.1490260463    -0.0938349559
Bq         1.8211190376    -1.0995346993    -0.0869646861
Bq         1.8192735124    -1.0500433523    -0.0800944163
Bq         1.8174279871    -1.0005520053    -0.0732241465
Bq         1.8155824618    -0.9510606583    -0.0663538768
Bq         1.8137369366    -0.9015693112    -0.0594836070
Bq         1.8118914113    -0.8520779642    -0.0526133372
Bq         1.8100458860    -0.8025866172    -0.0457430674
Bq         1.8082003608    -0.7530952702    -0.0388727976
Bq         1.8063548355    -0.7036039232    -0.0320025279
Bq         1.8045093102    -0.6541125761    -0.0251322581
Bq         1.8026637850    -0.6046212291    -0.0182619883
Bq         1.8008182597    -0.5551298821    -0.0113917185
Bq         1.7989727344    -0.5056385351    -0.0045214487
Bq         1.7971272091    -0.4561471881     0.0023488210
Bq         1.7952816839    -0.4066558411     0.0092190908
Bq         1.7934361586    -0.3571644940     0.0160893606
Bq         1.7915906333    -0.3076731470     0.0229596304
Bq         1.7897451081    -0.2581818000     0.0298299002
Bq         1.7878995828    -0.2086904530     0.0367001699
Bq         1.7860540575    -0.1591991060     0.0435704397
Bq         1.7842085323    -0.1097077589     0.0504407095
Bq         1.7823630070    -0.0602164119     0.0573109793
Bq         1.7805174817    -0.0107250649     0.0641812491
Bq         1.7786719565     0.0387662821     0.0710515188
Bq         1.7768264312     0.0882576291     0.0779217886
Bq         1.7749809059     0.1377489761     0.0847920584
Bq         1.7731353807     0.1872403232     0.0916623282

1
2
3
4
5
6
7
8
9
10
11
12
13
14
15
16
17
18
19
20
21
22
23
24
25
26
27
28
29
30
31
32
33
34
35
36
37
38
39
40
41
42
43
44
45
46
47
48
49
50
51
52
53
54
55
56
57
58
59
60
61
62
63
64
65
66
67
68
69
70
71
72
73
74
75
76
77
78
79
80
81
82
83
84
85
86
87
88
89
90
91
92
93
94
95
96
97
98
99
100
101
102
103
104
105
106
107
108
109
110
111
112
113
114
115
116
117
118
119
120
121
122
123
124
125
126
127
128
129
130
131
132
133
134
135
136
137
138
139
140
141
142
143
144
145
146
147
148
149
150
151
152
153
154
155
156
157
158
159
160
161
162
163
164
165
166
167
168
169
170
171
172
173
174
175
176
177
178
179
180
181
182
183
184
185
186
187
188
189
190
191
192
193
194
195
196
197
198
199
200
201
202
203
204
205
206
207
208
209
210
211
212
213
214
215
216
217
218
219
220
221
222
223
224
225
226
227
228
229
230
231
232
233
234
235
236

