%nproc=8
%mem=1000MB
# rb3lyp/6-311+g** NMR geom=connectivity

Title

0 1
C    -4.0500558   -0.5771862    0.8136712
H    -5.0263804   -1.0082727    1.0024760
C    -3.9381552    0.6617804    0.2400876
H    -4.8252424    1.2338890   -0.0111295
C    -2.6768410    1.2433246    0.0057578
C    -1.4974121    0.5051527    0.2848253
C    -1.6508332   -0.7338728    0.9404026
H    -0.7713646   -1.2730967    1.2633753
C    -2.8898548   -1.2624035    1.1994307
H    -2.9683706   -2.2124563    1.7152676
C    -2.5773185    2.5963696   -0.4192930
H    -3.4870728    3.1412239   -0.6474055
C    -1.3741895    3.2147896   -0.4364030
H    -1.2997315    4.2742019   -0.6578144
C    -0.1719488    2.4994090   -0.1734588
C    -0.2043917    1.1018437    0.0192689
C     1.0513491    3.2042560   -0.0676222
H     1.0427344    4.2819499   -0.1896997
C     2.1942091    2.5487446    0.2579577
H     3.1168527    3.0912848    0.4334727
C     2.2216473    1.1336562    0.2934990
C     1.0486931    0.3945528    0.0302412
C     3.4483363    0.4614633    0.5573939
H     4.3095794    1.0606054    0.8334846
C     3.5427346   -0.8855926    0.4749463
H     4.4731467   -1.3939704    0.7038822
C     2.4490052   -1.6474447   -0.0196319
C     1.2150704   -1.0057258   -0.3013573
C     0.2531113   -1.7434440   -1.0216591
H    -0.6541356   -1.2535051   -1.3462847
C     0.4494193   -3.0628597   -1.3413779
H    -0.3083162   -3.5944309   -1.9054060
C     1.6251726   -3.7207967   -0.9552541
H     1.7670048   -4.7687404   -1.1927019
C     2.6109872   -3.0144177   -0.3183050
H     3.5525612   -3.4902813   -0.0646367
Bq        -0.3381509203    -2.2784856168     1.6773864391
Bq        -0.3380654541    -2.2334599204     1.6556452485
Bq        -0.3379799880    -2.1884342241     1.6339040580
Bq        -0.3378945219    -2.1434085278     1.6121628675
Bq        -0.3378090557    -2.0983828314     1.5904216770
Bq        -0.3377235896    -2.0533571351     1.5686804865
Bq        -0.3376381235    -2.0083314388     1.5469392960
Bq        -0.3375526573    -1.9633057424     1.5251981054
Bq        -0.3374671912    -1.9182800461     1.5034569149
Bq        -0.3373817251    -1.8732543497     1.4817157244
Bq        -0.3372962589    -1.8282286534     1.4599745339
Bq        -0.3372107928    -1.7832029571     1.4382333434
Bq        -0.3371253266    -1.7381772607     1.4164921529
Bq        -0.3370398605    -1.6931515644     1.3947509624
Bq        -0.3369543944    -1.6481258681     1.3730097718
Bq        -0.3368689282    -1.6031001717     1.3512685813
Bq        -0.3367834621    -1.5580744754     1.3295273908
Bq        -0.3366979960    -1.5130487791     1.3077862003
Bq        -0.3366125298    -1.4680230827     1.2860450098
Bq        -0.3365270637    -1.4229973864     1.2643038193
Bq        -0.3364415975    -1.3779716901     1.2425626287
Bq        -0.3363561314    -1.3329459937     1.2208214382
Bq        -0.3362706653    -1.2879202974     1.1990802477
Bq        -0.3361851991    -1.2428946011     1.1773390572
Bq        -0.3360997330    -1.1978689047     1.1555978667
Bq        -0.3360142669    -1.1528432084     1.1338566762
Bq        -0.3359288007    -1.1078175120     1.1121154856
Bq        -0.3358433346    -1.0627918157     1.0903742951
Bq        -0.3357578684    -1.0177661194     1.0686331046
Bq        -0.3356724023    -0.9727404230     1.0468919141
Bq        -0.3355869362    -0.9277147267     1.0251507236
Bq        -0.3355014700    -0.8826890304     1.0034095331
Bq        -0.3354160039    -0.8376633340     0.9816683425
Bq        -0.3353305378    -0.7926376377     0.9599271520
Bq        -0.3352450716    -0.7476119414     0.9381859615
Bq        -0.3351596055    -0.7025862450     0.9164447710
Bq        -0.3350741393    -0.6575605487     0.8947035805
Bq        -0.3349886732    -0.6125348524     0.8729623900
Bq        -0.3349032071    -0.5675091560     0.8512211994
Bq        -0.3348177409    -0.5224834597     0.8294800089
Bq        -0.3347322748    -0.4774577634     0.8077388184
Bq        -0.3346468087    -0.4324320670     0.7859976279
Bq        -0.3345613425    -0.3874063707     0.7642564374
Bq        -0.3344758764    -0.3423806743     0.7425152469
Bq        -0.3343904102    -0.2973549780     0.7207740563
Bq        -0.3343049441    -0.2523292817     0.6990328658
Bq        -0.3342194780    -0.2073035853     0.6772916753
Bq        -0.3341340118    -0.1622778890     0.6555504848
Bq        -0.3340485457    -0.1172521927     0.6338092943
Bq        -0.3339630796    -0.0722264963     0.6120681038
Bq        -0.3338776134    -0.0272008000     0.5903269133
Bq        -0.3337921473     0.0178248963     0.5685857227
Bq        -0.3337066811     0.0628505927     0.5468445322
Bq        -0.3336212150     0.1078762890     0.5251033417
Bq        -0.3335357489     0.1529019853     0.5033621512
Bq        -0.3334502827     0.1979276817     0.4816209607
Bq        -0.3333648166     0.2429533780     0.4598797702
Bq        -0.3332793505     0.2879790743     0.4381385796
Bq        -0.3331938843     0.3330047707     0.4163973891
Bq        -0.3331084182     0.3780304670     0.3946561986
Bq        -0.3330229520     0.4230561634     0.3729150081
Bq        -0.3329374859     0.4680818597     0.3511738176
Bq        -0.3328520198     0.5131075560     0.3294326271
Bq        -0.3327665536     0.5581332524     0.3076914365
Bq        -0.3326810875     0.6031589487     0.2859502460
Bq        -0.3325956214     0.6481846450     0.2642090555
Bq        -0.3325101552     0.6932103414     0.2424678650
Bq        -0.3324246891     0.7382360377     0.2207266745
Bq        -0.3323392229     0.7832617340     0.1989854840
Bq        -0.3322537568     0.8282874304     0.1772442934
Bq        -0.3321682907     0.8733131267     0.1555031029
Bq        -0.3320828245     0.9183388230     0.1337619124
Bq        -0.3319973584     0.9633645194     0.1120207219
Bq        -0.3319118923     1.0083902157     0.0902795314
Bq        -0.3318264261     1.0534159120     0.0685383409
Bq        -0.3317409600     1.0984416084     0.0467971503
Bq        -0.3316554938     1.1434673047     0.0250559598
Bq        -0.3315700277     1.1884930011     0.0033147693
Bq        -0.3314845616     1.2335186974    -0.0184264212
Bq        -0.3313990954     1.2785443937    -0.0401676117
Bq        -0.3313136293     1.3235700901    -0.0619088022
Bq        -0.3312281632     1.3685957864    -0.0836499928
Bq        -0.3311426970     1.4136214827    -0.1053911833
Bq        -0.3310572309     1.4586471791    -0.1271323738
Bq        -0.3309717647     1.5036728754    -0.1488735643
Bq        -0.3308862986     1.5486985717    -0.1706147548
Bq        -0.3308008325     1.5937242681    -0.1923559453
Bq        -0.3307153663     1.6387499644    -0.2140971358
Bq        -0.3306299002     1.6837756607    -0.2358383264
Bq        -0.3305444341     1.7288013571    -0.2575795169
Bq        -0.3304589679     1.7738270534    -0.2793207074
Bq        -0.3303735018     1.8188527497    -0.3010618979
Bq        -0.3302880356     1.8638784461    -0.3228030884
Bq        -0.3302025695     1.9089041424    -0.3445442789
Bq        -0.3301171034     1.9539298388    -0.3662854695
Bq        -0.3300316372     1.9989555351    -0.3880266600
Bq        -0.3299461711     2.0439812314    -0.4097678505
Bq        -0.3298607050     2.0890069278    -0.4315090410
Bq        -0.3297752388     2.1340326241    -0.4532502315
Bq        -0.3296897727     2.1790583204    -0.4749914220
Bq        -0.3296043066     2.2240840168    -0.4967326126
Bq        -0.2881513066    -2.2784856168     1.6775829910
Bq        -0.2880658405    -2.2334599204     1.6558418005
Bq        -0.2879803743    -2.1884342241     1.6341006100
Bq        -0.2878949082    -2.1434085278     1.6123594195
Bq        -0.2878094421    -2.0983828314     1.5906182290
Bq        -0.2877239759    -2.0533571351     1.5688770385
Bq        -0.2876385098    -2.0083314388     1.5471358479
Bq        -0.2875530437    -1.9633057424     1.5253946574
Bq        -0.2874675775    -1.9182800461     1.5036534669
Bq        -0.2873821114    -1.8732543497     1.4819122764
Bq        -0.2872966452    -1.8282286534     1.4601710859
Bq        -0.2872111791    -1.7832029571     1.4384298954
Bq        -0.2871257130    -1.7381772607     1.4166887048
Bq        -0.2870402468    -1.6931515644     1.3949475143
Bq        -0.2869547807    -1.6481258681     1.3732063238
Bq        -0.2868693146    -1.6031001717     1.3514651333
Bq        -0.2867838484    -1.5580744754     1.3297239428
Bq        -0.2866983823    -1.5130487791     1.3079827523
Bq        -0.2866129161    -1.4680230827     1.2862415617
Bq        -0.2865274500    -1.4229973864     1.2645003712
Bq        -0.2864419839    -1.3779716901     1.2427591807
Bq        -0.2863565177    -1.3329459937     1.2210179902
Bq        -0.2862710516    -1.2879202974     1.1992767997
Bq        -0.2861855855    -1.2428946011     1.1775356092
Bq        -0.2861001193    -1.1978689047     1.1557944186
Bq        -0.2860146532    -1.1528432084     1.1340532281
Bq        -0.2859291870    -1.1078175120     1.1123120376
Bq        -0.2858437209    -1.0627918157     1.0905708471
Bq        -0.2857582548    -1.0177661194     1.0688296566
Bq        -0.2856727886    -0.9727404230     1.0470884661
Bq        -0.2855873225    -0.9277147267     1.0253472755
Bq        -0.2855018564    -0.8826890304     1.0036060850
Bq        -0.2854163902    -0.8376633340     0.9818648945
Bq        -0.2853309241    -0.7926376377     0.9601237040
Bq        -0.2852454579    -0.7476119414     0.9383825135
Bq        -0.2851599918    -0.7025862450     0.9166413230
Bq        -0.2850745257    -0.6575605487     0.8949001324
Bq        -0.2849890595    -0.6125348524     0.8731589419
Bq        -0.2849035934    -0.5675091560     0.8514177514
Bq        -0.2848181273    -0.5224834597     0.8296765609
Bq        -0.2847326611    -0.4774577634     0.8079353704
Bq        -0.2846471950    -0.4324320670     0.7861941799
Bq        -0.2845617288    -0.3874063707     0.7644529894
Bq        -0.2844762627    -0.3423806743     0.7427117988
Bq        -0.2843907966    -0.2973549780     0.7209706083
Bq        -0.2843053304    -0.2523292817     0.6992294178
Bq        -0.2842198643    -0.2073035853     0.6774882273
Bq        -0.2841343982    -0.1622778890     0.6557470368
Bq        -0.2840489320    -0.1172521927     0.6340058463
Bq        -0.2839634659    -0.0722264963     0.6122646557
Bq        -0.2838779997    -0.0272008000     0.5905234652
Bq        -0.2837925336     0.0178248963     0.5687822747
Bq        -0.2837070675     0.0628505927     0.5470410842
Bq        -0.2836216013     0.1078762890     0.5252998937
Bq        -0.2835361352     0.1529019853     0.5035587032
Bq        -0.2834506691     0.1979276817     0.4818175126
Bq        -0.2833652029     0.2429533780     0.4600763221
Bq        -0.2832797368     0.2879790743     0.4383351316
Bq        -0.2831942706     0.3330047707     0.4165939411
Bq        -0.2831088045     0.3780304670     0.3948527506
Bq        -0.2830233384     0.4230561634     0.3731115601
Bq        -0.2829378722     0.4680818597     0.3513703695
Bq        -0.2828524061     0.5131075560     0.3296291790
Bq        -0.2827669400     0.5581332524     0.3078879885
Bq        -0.2826814738     0.6031589487     0.2861467980
Bq        -0.2825960077     0.6481846450     0.2644056075
Bq        -0.2825105415     0.6932103414     0.2426644170
Bq        -0.2824250754     0.7382360377     0.2209232264
Bq        -0.2823396093     0.7832617340     0.1991820359
Bq        -0.2822541431     0.8282874304     0.1774408454
Bq        -0.2821686770     0.8733131267     0.1556996549
Bq        -0.2820832109     0.9183388230     0.1339584644
Bq        -0.2819977447     0.9633645194     0.1122172739
Bq        -0.2819122786     1.0083902157     0.0904760833
Bq        -0.2818268124     1.0534159120     0.0687348928
Bq        -0.2817413463     1.0984416084     0.0469937023
Bq        -0.2816558802     1.1434673047     0.0252525118
Bq        -0.2815704140     1.1884930011     0.0035113213
Bq        -0.2814849479     1.2335186974    -0.0182298692
Bq        -0.2813994818     1.2785443937    -0.0399710597
Bq        -0.2813140156     1.3235700901    -0.0617122503
Bq        -0.2812285495     1.3685957864    -0.0834534408
Bq        -0.2811430834     1.4136214827    -0.1051946313
Bq        -0.2810576172     1.4586471791    -0.1269358218
Bq        -0.2809721511     1.5036728754    -0.1486770123
Bq        -0.2808866849     1.5486985717    -0.1704182028
Bq        -0.2808012188     1.5937242681    -0.1921593934
Bq        -0.2807157527     1.6387499644    -0.2139005839
Bq        -0.2806302865     1.6837756607    -0.2356417744
Bq        -0.2805448204     1.7288013571    -0.2573829649
Bq        -0.2804593543     1.7738270534    -0.2791241554
Bq        -0.2803738881     1.8188527497    -0.3008653459
Bq        -0.2802884220     1.8638784461    -0.3226065365
Bq        -0.2802029558     1.9089041424    -0.3443477270
Bq        -0.2801174897     1.9539298388    -0.3660889175
Bq        -0.2800320236     1.9989555351    -0.3878301080
Bq        -0.2799465574     2.0439812314    -0.4095712985
Bq        -0.2798610913     2.0890069278    -0.4313124890
Bq        -0.2797756252     2.1340326241    -0.4530536796

1
2
3
4
5
6
7
8
9
10
11
12
13
14
15
16
17
18
19
20
21
22
23
24
25
26
27
28
29
30
31
32
33
34
35
36
37
38
39
40
41
42
43
44
45
46
47
48
49
50
51
52
53
54
55
56
57
58
59
60
61
62
63
64
65
66
67
68
69
70
71
72
73
74
75
76
77
78
79
80
81
82
83
84
85
86
87
88
89
90
91
92
93
94
95
96
97
98
99
100
101
102
103
104
105
106
107
108
109
110
111
112
113
114
115
116
117
118
119
120
121
122
123
124
125
126
127
128
129
130
131
132
133
134
135
136
137
138
139
140
141
142
143
144
145
146
147
148
149
150
151
152
153
154
155
156
157
158
159
160
161
162
163
164
165
166
167
168
169
170
171
172
173
174
175
176
177
178
179
180
181
182
183
184
185
186
187
188
189
190
191
192
193
194
195
196
197
198
199
200
201
202
203
204
205
206
207
208
209
210
211
212
213
214
215
216
217
218
219
220
221
222
223
224
225
226
227
228
229
230
231
232
233
234
235
236

