%nproc=8
%mem=1000MB
# rb3lyp/6-311+g** NMR geom=connectivity

Title

0 1
C    -4.0500558   -0.5771862    0.8136712
H    -5.0263804   -1.0082727    1.0024760
C    -3.9381552    0.6617804    0.2400876
H    -4.8252424    1.2338890   -0.0111295
C    -2.6768410    1.2433246    0.0057578
C    -1.4974121    0.5051527    0.2848253
C    -1.6508332   -0.7338728    0.9404026
H    -0.7713646   -1.2730967    1.2633753
C    -2.8898548   -1.2624035    1.1994307
H    -2.9683706   -2.2124563    1.7152676
C    -2.5773185    2.5963696   -0.4192930
H    -3.4870728    3.1412239   -0.6474055
C    -1.3741895    3.2147896   -0.4364030
H    -1.2997315    4.2742019   -0.6578144
C    -0.1719488    2.4994090   -0.1734588
C    -0.2043917    1.1018437    0.0192689
C     1.0513491    3.2042560   -0.0676222
H     1.0427344    4.2819499   -0.1896997
C     2.1942091    2.5487446    0.2579577
H     3.1168527    3.0912848    0.4334727
C     2.2216473    1.1336562    0.2934990
C     1.0486931    0.3945528    0.0302412
C     3.4483363    0.4614633    0.5573939
H     4.3095794    1.0606054    0.8334846
C     3.5427346   -0.8855926    0.4749463
H     4.4731467   -1.3939704    0.7038822
C     2.4490052   -1.6474447   -0.0196319
C     1.2150704   -1.0057258   -0.3013573
C     0.2531113   -1.7434440   -1.0216591
H    -0.6541356   -1.2535051   -1.3462847
C     0.4494193   -3.0628597   -1.3413779
H    -0.3083162   -3.5944309   -1.9054060
C     1.6251726   -3.7207967   -0.9552541
H     1.7670048   -4.7687404   -1.1927019
C     2.6109872   -3.0144177   -0.3183050
H     3.5525612   -3.4902813   -0.0646367
Bq        -0.4996922276     3.3119319473    -0.2375917180
Bq        -0.4993361606     3.3618715550    -0.2400225204
Bq        -0.4989800936     3.4118111627    -0.2424533228
Bq        -0.4986240266     3.4617507704    -0.2448841251
Bq        -0.4982679597     3.5116903781    -0.2473149275
Bq        -0.4979118927     3.5616299858    -0.2497457299
Bq        -0.4975558257     3.6115695935    -0.2521765323
Bq        -0.4971997588     3.6615092011    -0.2546073347
Bq        -0.4968436918     3.7114488088    -0.2570381371
Bq        -0.4964876248     3.7613884165    -0.2594689394
Bq        -0.4961315578     3.8113280242    -0.2618997418
Bq        -0.4957754909     3.8612676319    -0.2643305442
Bq        -0.4954194239     3.9112072396    -0.2667613466
Bq        -0.4950633569     3.9611468473    -0.2691921490
Bq        -0.4947072900     4.0110864550    -0.2716229514
Bq        -0.4943512230     4.0610260627    -0.2740537537
Bq        -0.4939951560     4.1109656703    -0.2764845561
Bq        -0.4936390890     4.1609052780    -0.2789153585
Bq        -0.4932830221     4.2108448857    -0.2813461609
Bq        -0.4929269551     4.2607844934    -0.2837769633
Bq        -0.4925708881     4.3107241011    -0.2862077657
Bq        -0.4787055233    -0.6832366678    -0.0358807979
Bq        -0.4783494563    -0.6332970601    -0.0383116003
Bq        -0.4779933893    -0.5833574524    -0.0407424026
Bq        -0.4776373224    -0.5334178447    -0.0431732050
Bq        -0.4772812554    -0.4834782370    -0.0456040074
Bq        -0.4769251884    -0.4335386293    -0.0480348098
Bq        -0.4765691215    -0.3835990216    -0.0504656122
Bq        -0.4762130545    -0.3336594139    -0.0528964146
Bq        -0.4758569875    -0.2837198063    -0.0553272169
Bq        -0.4755009205    -0.2337801986    -0.0577580193
Bq        -0.4751448536    -0.1838405909    -0.0601888217
Bq        -0.4747887866    -0.1339009832    -0.0626196241
Bq        -0.4744327196    -0.0839613755    -0.0650504265
Bq        -0.4740766527    -0.0340217678    -0.0674812289
Bq        -0.4737205857     0.0159178399    -0.0699120312
Bq        -0.4733645187     0.0658574476    -0.0723428336
Bq        -0.4730084517     0.1157970553    -0.0747736360
Bq        -0.4726523848     0.1657366629    -0.0772044384
Bq        -0.4722963178     0.2156762706    -0.0796352408
Bq        -0.4719402508     0.2656158783    -0.0820660432
Bq        -0.4715841839     0.3155554860    -0.0844968455
Bq        -0.4712281169     0.3654950937    -0.0869276479
Bq        -0.4708720499     0.4154347014    -0.0893584503
Bq        -0.4705159830     0.4653743091    -0.0917892527
Bq        -0.4701599160     0.5153139168    -0.0942200551
Bq        -0.4698038490     0.5652535245    -0.0966508575
Bq        -0.4694477820     0.6151931321    -0.0990816598
Bq        -0.4690917151     0.6651327398    -0.1015124622
Bq        -0.4687356481     0.7150723475    -0.1039432646
Bq        -0.4683795811     0.7650119552    -0.1063740670
Bq        -0.4680235142     0.8149515629    -0.1088048694
Bq        -0.4676674472     0.8648911706    -0.1112356718
Bq        -0.4673113802     0.9148307783    -0.1136664741
Bq        -0.4669553132     0.9647703860    -0.1160972765
Bq        -0.4665992463     1.0147099936    -0.1185280789
Bq        -0.4662431793     1.0646496013    -0.1209588813
Bq        -0.4658871123     1.1145892090    -0.1233896837
Bq        -0.4655310454     1.1645288167    -0.1258204861
Bq        -0.4651749784     1.2144684244    -0.1282512884
Bq        -0.4648189114     1.2644080321    -0.1306820908
Bq        -0.4644628444     1.3143476398    -0.1331128932
Bq        -0.4641067775     1.3642872475    -0.1355436956
Bq        -0.4637507105     1.4142268552    -0.1379744980
Bq        -0.4633946435     1.4641664628    -0.1404053004
Bq        -0.4630385766     1.5141060705    -0.1428361027
Bq        -0.4626825096     1.5640456782    -0.1452669051
Bq        -0.4623264426     1.6139852859    -0.1476977075
Bq        -0.4619703757     1.6639248936    -0.1501285099
Bq        -0.4616143087     1.7138645013    -0.1525593123
Bq        -0.4612582417     1.7638041090    -0.1549901147
Bq        -0.4609021747     1.8137437167    -0.1574209170
Bq        -0.4605461078     1.8636833244    -0.1598517194
Bq        -0.4601900408     1.9136229320    -0.1622825218
Bq        -0.4598339738     1.9635625397    -0.1647133242
Bq        -0.4594779069     2.0135021474    -0.1671441266
Bq        -0.4591218399     2.0634417551    -0.1695749290
Bq        -0.4587657729     2.1133813628    -0.1720057313
Bq        -0.4584097059     2.1633209705    -0.1744365337
Bq        -0.4580536390     2.2132605782    -0.1768673361
Bq        -0.4576975720     2.2632001859    -0.1792981385
Bq        -0.4573415050     2.3131397936    -0.1817289409
Bq        -0.4569854381     2.3630794012    -0.1841597433
Bq        -0.4566293711     2.4130190089    -0.1865905456
Bq        -0.4562733041     2.4629586166    -0.1890213480
Bq        -0.4559172371     2.5128982243    -0.1914521504
Bq        -0.4555611702     2.5628378320    -0.1938829528
Bq        -0.4552051032     2.6127774397    -0.1963137552
Bq        -0.4548490362     2.6627170474    -0.1987445576
Bq        -0.4544929693     2.7126566551    -0.2011753599
Bq        -0.4541369023     2.7625962627    -0.2036061623
Bq        -0.4537808353     2.8125358704    -0.2060369647
Bq        -0.4534247684     2.8624754781    -0.2084677671
Bq        -0.4530687014     2.9124150858    -0.2108985695
Bq        -0.4527126344     2.9623546935    -0.2133293719
Bq        -0.4523565674     3.0122943012    -0.2157601742
Bq        -0.4520005005     3.0622339089    -0.2181909766
Bq        -0.4516444335     3.1121735166    -0.2206217790
Bq        -0.4512883665     3.1621131243    -0.2230525814
Bq        -0.4509322996     3.2120527319    -0.2254833838
Bq        -0.4505762326     3.2619923396    -0.2279141862
Bq        -0.4502201656     3.3119319473    -0.2303449885
Bq        -0.4498640986     3.3618715550    -0.2327757909
Bq        -0.4495080317     3.4118111627    -0.2352065933
Bq        -0.4491519647     3.4617507704    -0.2376373957
Bq        -0.4487958977     3.5116903781    -0.2400681981
Bq        -0.4484398308     3.5616299858    -0.2424990005
Bq        -0.4480837638     3.6115695935    -0.2449298028
Bq        -0.4477276968     3.6615092011    -0.2473606052
Bq        -0.4473716298     3.7114488088    -0.2497914076
Bq        -0.4470155629     3.7613884165    -0.2522222100
Bq        -0.4466594959     3.8113280242    -0.2546530124
Bq        -0.4463034289     3.8612676319    -0.2570838148
Bq        -0.4459473620     3.9112072396    -0.2595146171
Bq        -0.4455912950     3.9611468473    -0.2619454195
Bq        -0.4452352280     4.0110864550    -0.2643762219
Bq        -0.4448791611     4.0610260627    -0.2668070243
Bq        -0.4445230941     4.1109656703    -0.2692378267
Bq        -0.4441670271     4.1609052780    -0.2716686291
Bq        -0.4438109601     4.2108448857    -0.2740994314
Bq        -0.4434548932     4.2607844934    -0.2765302338
Bq        -0.4430988262     4.3107241011    -0.2789610362
Bq        -0.4292334613    -0.6832366678    -0.0286340684
Bq        -0.4288773944    -0.6332970601    -0.0310648708
Bq        -0.4285213274    -0.5833574524    -0.0334956732
Bq        -0.4281652604    -0.5334178447    -0.0359264756
Bq        -0.4278091935    -0.4834782370    -0.0383572780
Bq        -0.4274531265    -0.4335386293    -0.0407880803
Bq        -0.4270970595    -0.3835990216    -0.0432188827
Bq        -0.4267409926    -0.3336594139    -0.0456496851
Bq        -0.4263849256    -0.2837198063    -0.0480804875
Bq        -0.4260288586    -0.2337801986    -0.0505112899
Bq        -0.4256727916    -0.1838405909    -0.0529420923
Bq        -0.4253167247    -0.1339009832    -0.0553728946
Bq        -0.4249606577    -0.0839613755    -0.0578036970
Bq        -0.4246045907    -0.0340217678    -0.0602344994
Bq        -0.4242485238     0.0159178399    -0.0626653018
Bq        -0.4238924568     0.0658574476    -0.0650961042
Bq        -0.4235363898     0.1157970553    -0.0675269066
Bq        -0.4231803228     0.1657366629    -0.0699577089
Bq        -0.4228242559     0.2156762706    -0.0723885113
Bq        -0.4224681889     0.2656158783    -0.0748193137
Bq        -0.4221121219     0.3155554860    -0.0772501161
Bq        -0.4217560550     0.3654950937    -0.0796809185
Bq        -0.4213999880     0.4154347014    -0.0821117209
Bq        -0.4210439210     0.4653743091    -0.0845425232
Bq        -0.4206878540     0.5153139168    -0.0869733256
Bq        -0.4203317871     0.5652535245    -0.0894041280
Bq        -0.4199757201     0.6151931321    -0.0918349304
Bq        -0.4196196531     0.6651327398    -0.0942657328
Bq        -0.4192635862     0.7150723475    -0.0966965352
Bq        -0.4189075192     0.7650119552    -0.0991273375
Bq        -0.4185514522     0.8149515629    -0.1015581399
Bq        -0.4181953853     0.8648911706    -0.1039889423
Bq        -0.4178393183     0.9148307783    -0.1064197447
Bq        -0.4174832513     0.9647703860    -0.1088505471
Bq        -0.4171271843     1.0147099936    -0.1112813495
Bq        -0.4167711174     1.0646496013    -0.1137121518
Bq        -0.4164150504     1.1145892090    -0.1161429542
Bq        -0.4160589834     1.1645288167    -0.1185737566
Bq        -0.4157029165     1.2144684244    -0.1210045590
Bq        -0.4153468495     1.2644080321    -0.1234353614
Bq        -0.4149907825     1.3143476398    -0.1258661638
Bq        -0.4146347155     1.3642872475    -0.1282969661
Bq        -0.4142786486     1.4142268552    -0.1307277685
Bq        -0.4139225816     1.4641664628    -0.1331585709
Bq        -0.4135665146     1.5141060705    -0.1355893733
Bq        -0.4132104477     1.5640456782    -0.1380201757
Bq        -0.4128543807     1.6139852859    -0.1404509781
Bq        -0.4124983137     1.6639248936    -0.1428817804
Bq        -0.4121422467     1.7138645013    -0.1453125828
Bq        -0.4117861798     1.7638041090    -0.1477433852
Bq        -0.4114301128     1.8137437167    -0.1501741876
Bq        -0.4110740458     1.8636833244    -0.1526049900
Bq        -0.4107179789     1.9136229320    -0.1550357924
Bq        -0.4103619119     1.9635625397    -0.1574665947
Bq        -0.4100058449     2.0135021474    -0.1598973971
Bq        -0.4096497779     2.0634417551    -0.1623281995
Bq        -0.4092937110     2.1133813628    -0.1647590019
Bq        -0.4089376440     2.1633209705    -0.1671898043
Bq        -0.4085815770     2.2132605782    -0.1696206067
Bq        -0.4082255101     2.2632001859    -0.1720514090
Bq        -0.4078694431     2.3131397936    -0.1744822114
Bq        -0.4075133761     2.3630794012    -0.1769130138
Bq        -0.4071573092     2.4130190089    -0.1793438162
Bq        -0.4068012422     2.4629586166    -0.1817746186
Bq        -0.4064451752     2.5128982243    -0.1842054210
Bq        -0.4060891082     2.5628378320    -0.1866362233
Bq        -0.4057330413     2.6127774397    -0.1890670257
Bq        -0.4053769743     2.6627170474    -0.1914978281
Bq        -0.4050209073     2.7126566551    -0.1939286305
Bq        -0.4046648404     2.7625962627    -0.1963594329
Bq        -0.4043087734     2.8125358704    -0.1987902353
Bq        -0.4039527064     2.8624754781    -0.2012210376
Bq        -0.4035966394     2.9124150858    -0.2036518400
Bq        -0.4032405725     2.9623546935    -0.2060826424
Bq        -0.4028845055     3.0122943012    -0.2085134448
Bq        -0.4025284385     3.0622339089    -0.2109442472
Bq        -0.4021723716     3.1121735166    -0.2133750495
Bq        -0.4018163046     3.1621131243    -0.2158058519

1
2
3
4
5
6
7
8
9
10
11
12
13
14
15
16
17
18
19
20
21
22
23
24
25
26
27
28
29
30
31
32
33
34
35
36
37
38
39
40
41
42
43
44
45
46
47
48
49
50
51
52
53
54
55
56
57
58
59
60
61
62
63
64
65
66
67
68
69
70
71
72
73
74
75
76
77
78
79
80
81
82
83
84
85
86
87
88
89
90
91
92
93
94
95
96
97
98
99
100
101
102
103
104
105
106
107
108
109
110
111
112
113
114
115
116
117
118
119
120
121
122
123
124
125
126
127
128
129
130
131
132
133
134
135
136
137
138
139
140
141
142
143
144
145
146
147
148
149
150
151
152
153
154
155
156
157
158
159
160
161
162
163
164
165
166
167
168
169
170
171
172
173
174
175
176
177
178
179
180
181
182
183
184
185
186
187
188
189
190
191
192
193
194
195
196
197
198
199
200
201
202
203
204
205
206
207
208
209
210
211
212
213
214
215
216
217
218
219
220
221
222
223
224
225
226
227
228
229
230
231
232
233
234
235
236

