%nproc=8
%mem=1000MB
# rb3lyp/6-311+g** NMR geom=connectivity

Title

0 1
C    -4.0500558   -0.5771862    0.8136712
H    -5.0263804   -1.0082727    1.0024760
C    -3.9381552    0.6617804    0.2400876
H    -4.8252424    1.2338890   -0.0111295
C    -2.6768410    1.2433246    0.0057578
C    -1.4974121    0.5051527    0.2848253
C    -1.6508332   -0.7338728    0.9404026
H    -0.7713646   -1.2730967    1.2633753
C    -2.8898548   -1.2624035    1.1994307
H    -2.9683706   -2.2124563    1.7152676
C    -2.5773185    2.5963696   -0.4192930
H    -3.4870728    3.1412239   -0.6474055
C    -1.3741895    3.2147896   -0.4364030
H    -1.2997315    4.2742019   -0.6578144
C    -0.1719488    2.4994090   -0.1734588
C    -0.2043917    1.1018437    0.0192689
C     1.0513491    3.2042560   -0.0676222
H     1.0427344    4.2819499   -0.1896997
C     2.1942091    2.5487446    0.2579577
H     3.1168527    3.0912848    0.4334727
C     2.2216473    1.1336562    0.2934990
C     1.0486931    0.3945528    0.0302412
C     3.4483363    0.4614633    0.5573939
H     4.3095794    1.0606054    0.8334846
C     3.5427346   -0.8855926    0.4749463
H     4.4731467   -1.3939704    0.7038822
C     2.4490052   -1.6474447   -0.0196319
C     1.2150704   -1.0057258   -0.3013573
C     0.2531113   -1.7434440   -1.0216591
H    -0.6541356   -1.2535051   -1.3462847
C     0.4494193   -3.0628597   -1.3413779
H    -0.3083162   -3.5944309   -1.9054060
C     1.6251726   -3.7207967   -0.9552541
H     1.7670048   -4.7687404   -1.1927019
C     2.6109872   -3.0144177   -0.3183050
H     3.5525612   -3.4902813   -0.0646367
Bq         0.3677164298    -1.4018516062    -0.8514756155
Bq         0.3622131931    -1.3536551149    -0.8393589903
Bq         0.3567099564    -1.3054586235    -0.8272423651
Bq         0.3512067198    -1.2572621321    -0.8151257398
Bq         0.3457034831    -1.2090656408    -0.8030091146
Bq         0.3402002464    -1.1608691494    -0.7908924894
Bq         0.3346970097    -1.1126726581    -0.7787758641
Bq         0.3291937730    -1.0644761667    -0.7666592389
Bq         0.3236905363    -1.0162796754    -0.7545426137
Bq         0.3181872996    -0.9680831840    -0.7424259885
Bq         0.3126840630    -0.9198866927    -0.7303093632
Bq         0.3071808263    -0.8716902013    -0.7181927380
Bq         0.3016775896    -0.8234937099    -0.7060761128
Bq         0.2961743529    -0.7752972186    -0.6939594875
Bq         0.2906711162    -0.7271007272    -0.6818428623
Bq         0.2851678795    -0.6789042359    -0.6697262371
Bq         0.2796646428    -0.6307077445    -0.6576096119
Bq         0.2741614062    -0.5825112532    -0.6454929866
Bq         0.2686581695    -0.5343147618    -0.6333763614
Bq         0.2631549328    -0.4861182704    -0.6212597362
Bq         0.2576516961    -0.4379217791    -0.6091431109
Bq         0.2521484594    -0.3897252877    -0.5970264857
Bq         0.2466452227    -0.3415287964    -0.5849098605
Bq         0.2411419860    -0.2933323050    -0.5727932353
Bq         0.2356387494    -0.2451358137    -0.5606766100
Bq         0.2301355127    -0.1969393223    -0.5485599848
Bq         0.2246322760    -0.1487428310    -0.5364433596
Bq         0.2191290393    -0.1005463396    -0.5243267343
Bq         0.2136258026    -0.0523498482    -0.5122101091
Bq         0.2081225659    -0.0041533569    -0.5000934839
Bq         0.2026193292     0.0440431345    -0.4879768586
Bq         0.7984674345    -4.7756060011    -1.6789626877
Bq         0.7929641978    -4.7274095098    -1.6668460625
Bq         0.7874609611    -4.6792130184    -1.6547294373
Bq         0.7819577244    -4.6310165271    -1.6426128120
Bq         0.7764544878    -4.5828200357    -1.6304961868
Bq         0.7709512511    -4.5346235444    -1.6183795616
Bq         0.7654480144    -4.4864270530    -1.6062629364
Bq         0.7599447777    -4.4382305616    -1.5941463111
Bq         0.7544415410    -4.3900340703    -1.5820296859
Bq         0.7489383043    -4.3418375789    -1.5699130607
Bq         0.7434350676    -4.2936410876    -1.5577964354
Bq         0.7379318310    -4.2454445962    -1.5456798102
Bq         0.7324285943    -4.1972481049    -1.5335631850
Bq         0.7269253576    -4.1490516135    -1.5214465598
Bq         0.7214221209    -4.1008551222    -1.5093299345
Bq         0.7159188842    -4.0526586308    -1.4972133093
Bq         0.7104156475    -4.0044621394    -1.4850966841
Bq         0.7049124108    -3.9562656481    -1.4729800588
Bq         0.6994091742    -3.9080691567    -1.4608634336
Bq         0.6939059375    -3.8598726654    -1.4487468084
Bq         0.6884027008    -3.8116761740    -1.4366301832
Bq         0.6828994641    -3.7634796827    -1.4245135579
Bq         0.6773962274    -3.7152831913    -1.4123969327
Bq         0.6718929907    -3.6670866999    -1.4002803075
Bq         0.6663897540    -3.6188902086    -1.3881636822
Bq         0.6608865173    -3.5706937172    -1.3760470570
Bq         0.6553832807    -3.5224972259    -1.3639304318
Bq         0.6498800440    -3.4743007345    -1.3518138066
Bq         0.6443768073    -3.4261042432    -1.3396971813
Bq         0.6388735706    -3.3779077518    -1.3275805561
Bq         0.6333703339    -3.3297112605    -1.3154639309
Bq         0.6278670972    -3.2815147691    -1.3033473056
Bq         0.6223638605    -3.2333182777    -1.2912306804
Bq         0.6168606239    -3.1851217864    -1.2791140552
Bq         0.6113573872    -3.1369252950    -1.2669974299
Bq         0.6058541505    -3.0887288037    -1.2548808047
Bq         0.6003509138    -3.0405323123    -1.2427641795
Bq         0.5948476771    -2.9923358210    -1.2306475543
Bq         0.5893444404    -2.9441393296    -1.2185309290
Bq         0.5838412037    -2.8959428383    -1.2064143038
Bq         0.5783379671    -2.8477463469    -1.1942976786
Bq         0.5728347304    -2.7995498555    -1.1821810533
Bq         0.5673314937    -2.7513533642    -1.1700644281
Bq         0.5618282570    -2.7031568728    -1.1579478029
Bq         0.5563250203    -2.6549603815    -1.1458311777
Bq         0.5508217836    -2.6067638901    -1.1337145524
Bq         0.5453185469    -2.5585673988    -1.1215979272
Bq         0.5398153103    -2.5103709074    -1.1094813020
Bq         0.5343120736    -2.4621744160    -1.0973646767
Bq         0.5288088369    -2.4139779247    -1.0852480515
Bq         0.5233056002    -2.3657814333    -1.0731314263
Bq         0.5178023635    -2.3175849420    -1.0610148011
Bq         0.5122991268    -2.2693884506    -1.0488981758
Bq         0.5067958901    -2.2211919593    -1.0367815506
Bq         0.5012926535    -2.1729954679    -1.0246649254
Bq         0.4957894168    -2.1247989766    -1.0125483001
Bq         0.4902861801    -2.0766024852    -1.0004316749
Bq         0.4847829434    -2.0284059938    -0.9883150497
Bq         0.4792797067    -1.9802095025    -0.9761984245
Bq         0.4737764700    -1.9320130111    -0.9640817992
Bq         0.4682732333    -1.8838165198    -0.9519651740
Bq         0.4627699967    -1.8356200284    -0.9398485488
Bq         0.4572667600    -1.7874235371    -0.9277319235
Bq         0.4517635233    -1.7392270457    -0.9156152983
Bq         0.4462602866    -1.6910305543    -0.9034986731
Bq         0.4407570499    -1.6428340630    -0.8913820478
Bq         0.4352538132    -1.5946375716    -0.8792654226
Bq         0.4297505765    -1.5464410803    -0.8671487974
Bq         0.4242473398    -1.4982445889    -0.8550321722
Bq         0.4187441032    -1.4500480976    -0.8429155469
Bq         0.4132408665    -1.4018516062    -0.8307989217
Bq         0.4077376298    -1.3536551149    -0.8186822965
Bq         0.4022343931    -1.3054586235    -0.8065656712
Bq         0.3967311564    -1.2572621321    -0.7944490460
Bq         0.3912279197    -1.2090656408    -0.7823324208
Bq         0.3857246830    -1.1608691494    -0.7702157956
Bq         0.3802214464    -1.1126726581    -0.7580991703
Bq         0.3747182097    -1.0644761667    -0.7459825451
Bq         0.3692149730    -1.0162796754    -0.7338659199
Bq         0.3637117363    -0.9680831840    -0.7217492946
Bq         0.3582084996    -0.9198866927    -0.7096326694
Bq         0.3527052629    -0.8716902013    -0.6975160442
Bq         0.3472020262    -0.8234937099    -0.6853994190
Bq         0.3416987896    -0.7752972186    -0.6732827937
Bq         0.3361955529    -0.7271007272    -0.6611661685
Bq         0.3306923162    -0.6789042359    -0.6490495433
Bq         0.3251890795    -0.6307077445    -0.6369329180
Bq         0.3196858428    -0.5825112532    -0.6248162928
Bq         0.3141826061    -0.5343147618    -0.6126996676
Bq         0.3086793694    -0.4861182704    -0.6005830424
Bq         0.3031761328    -0.4379217791    -0.5884664171
Bq         0.2976728961    -0.3897252877    -0.5763497919
Bq         0.2921696594    -0.3415287964    -0.5642331667
Bq         0.2866664227    -0.2933323050    -0.5521165414
Bq         0.2811631860    -0.2451358137    -0.5399999162
Bq         0.2756599493    -0.1969393223    -0.5278832910
Bq         0.2701567126    -0.1487428310    -0.5157666657
Bq         0.2646534760    -0.1005463396    -0.5036500405
Bq         0.2591502393    -0.0523498482    -0.4915334153
Bq         0.2536470026    -0.0041533569    -0.4794167901
Bq         0.2481437659     0.0440431345    -0.4673001648
Bq         0.8439918712    -4.7756060011    -1.6582859939
Bq         0.8384886345    -4.7274095098    -1.6461693687
Bq         0.8329853978    -4.6792130184    -1.6340527435
Bq         0.8274821611    -4.6310165271    -1.6219361182
Bq         0.8219789244    -4.5828200357    -1.6098194930
Bq         0.8164756877    -4.5346235444    -1.5977028678
Bq         0.8109724510    -4.4864270530    -1.5855862425
Bq         0.8054692144    -4.4382305616    -1.5734696173
Bq         0.7999659777    -4.3900340703    -1.5613529921
Bq         0.7944627410    -4.3418375789    -1.5492363669
Bq         0.7889595043    -4.2936410876    -1.5371197416
Bq         0.7834562676    -4.2454445962    -1.5250031164
Bq         0.7779530309    -4.1972481049    -1.5128864912
Bq         0.7724497942    -4.1490516135    -1.5007698659
Bq         0.7669465576    -4.1008551222    -1.4886532407
Bq         0.7614433209    -4.0526586308    -1.4765366155
Bq         0.7559400842    -4.0044621394    -1.4644199903
Bq         0.7504368475    -3.9562656481    -1.4523033650
Bq         0.7449336108    -3.9080691567    -1.4401867398
Bq         0.7394303741    -3.8598726654    -1.4280701146
Bq         0.7339271374    -3.8116761740    -1.4159534893
Bq         0.7284239008    -3.7634796827    -1.4038368641
Bq         0.7229206641    -3.7152831913    -1.3917202389
Bq         0.7174174274    -3.6670866999    -1.3796036137
Bq         0.7119141907    -3.6188902086    -1.3674869884
Bq         0.7064109540    -3.5706937172    -1.3553703632
Bq         0.7009077173    -3.5224972259    -1.3432537380
Bq         0.6954044806    -3.4743007345    -1.3311371127
Bq         0.6899012439    -3.4261042432    -1.3190204875
Bq         0.6843980073    -3.3779077518    -1.3069038623
Bq         0.6788947706    -3.3297112605    -1.2947872370
Bq         0.6733915339    -3.2815147691    -1.2826706118
Bq         0.6678882972    -3.2333182777    -1.2705539866
Bq         0.6623850605    -3.1851217864    -1.2584373614
Bq         0.6568818238    -3.1369252950    -1.2463207361
Bq         0.6513785871    -3.0887288037    -1.2342041109
Bq         0.6458753505    -3.0405323123    -1.2220874857
Bq         0.6403721138    -2.9923358210    -1.2099708604
Bq         0.6348688771    -2.9441393296    -1.1978542352
Bq         0.6293656404    -2.8959428383    -1.1857376100
Bq         0.6238624037    -2.8477463469    -1.1736209848
Bq         0.6183591670    -2.7995498555    -1.1615043595
Bq         0.6128559303    -2.7513533642    -1.1493877343
Bq         0.6073526937    -2.7031568728    -1.1372711091
Bq         0.6018494570    -2.6549603815    -1.1251544838
Bq         0.5963462203    -2.6067638901    -1.1130378586
Bq         0.5908429836    -2.5585673988    -1.1009212334
Bq         0.5853397469    -2.5103709074    -1.0888046082
Bq         0.5798365102    -2.4621744160    -1.0766879829
Bq         0.5743332735    -2.4139779247    -1.0645713577
Bq         0.5688300369    -2.3657814333    -1.0524547325
Bq         0.5633268002    -2.3175849420    -1.0403381072
Bq         0.5578235635    -2.2693884506    -1.0282214820
Bq         0.5523203268    -2.2211919593    -1.0161048568
Bq         0.5468170901    -2.1729954679    -1.0039882316
Bq         0.5413138534    -2.1247989766    -0.9918716063
Bq         0.5358106167    -2.0766024852    -0.9797549811
Bq         0.5303073801    -2.0284059938    -0.9676383559
Bq         0.5248041434    -1.9802095025    -0.9555217306
Bq         0.5193009067    -1.9320130111    -0.9434051054
Bq         0.5137976700    -1.8838165198    -0.9312884802
Bq         0.5082944333    -1.8356200284    -0.9191718550
Bq         0.5027911966    -1.7874235371    -0.9070552297
Bq         0.4972879599    -1.7392270457    -0.8949386045
Bq         0.4917847233    -1.6910305543    -0.8828219793
Bq         0.4862814866    -1.6428340630    -0.8707053540
Bq         0.4807782499    -1.5946375716    -0.8585887288
Bq         0.4752750132    -1.5464410803    -0.8464721036

1
2
3
4
5
6
7
8
9
10
11
12
13
14
15
16
17
18
19
20
21
22
23
24
25
26
27
28
29
30
31
32
33
34
35
36
37
38
39
40
41
42
43
44
45
46
47
48
49
50
51
52
53
54
55
56
57
58
59
60
61
62
63
64
65
66
67
68
69
70
71
72
73
74
75
76
77
78
79
80
81
82
83
84
85
86
87
88
89
90
91
92
93
94
95
96
97
98
99
100
101
102
103
104
105
106
107
108
109
110
111
112
113
114
115
116
117
118
119
120
121
122
123
124
125
126
127
128
129
130
131
132
133
134
135
136
137
138
139
140
141
142
143
144
145
146
147
148
149
150
151
152
153
154
155
156
157
158
159
160
161
162
163
164
165
166
167
168
169
170
171
172
173
174
175
176
177
178
179
180
181
182
183
184
185
186
187
188
189
190
191
192
193
194
195
196
197
198
199
200
201
202
203
204
205
206
207
208
209
210
211
212
213
214
215
216
217
218
219
220
221
222
223
224
225
226
227
228
229
230
231
232
233
234
235
236

