%nproc=8
%mem=1000MB
# rb3lyp/6-311+g** NMR geom=connectivity

Title

0 1
C    -4.0500558   -0.5771862    0.8136712
H    -5.0263804   -1.0082727    1.0024760
C    -3.9381552    0.6617804    0.2400876
H    -4.8252424    1.2338890   -0.0111295
C    -2.6768410    1.2433246    0.0057578
C    -1.4974121    0.5051527    0.2848253
C    -1.6508332   -0.7338728    0.9404026
H    -0.7713646   -1.2730967    1.2633753
C    -2.8898548   -1.2624035    1.1994307
H    -2.9683706   -2.2124563    1.7152676
C    -2.5773185    2.5963696   -0.4192930
H    -3.4870728    3.1412239   -0.6474055
C    -1.3741895    3.2147896   -0.4364030
H    -1.2997315    4.2742019   -0.6578144
C    -0.1719488    2.4994090   -0.1734588
C    -0.2043917    1.1018437    0.0192689
C     1.0513491    3.2042560   -0.0676222
H     1.0427344    4.2819499   -0.1896997
C     2.1942091    2.5487446    0.2579577
H     3.1168527    3.0912848    0.4334727
C     2.2216473    1.1336562    0.2934990
C     1.0486931    0.3945528    0.0302412
C     3.4483363    0.4614633    0.5573939
H     4.3095794    1.0606054    0.8334846
C     3.5427346   -0.8855926    0.4749463
H     4.4731467   -1.3939704    0.7038822
C     2.4490052   -1.6474447   -0.0196319
C     1.2150704   -1.0057258   -0.3013573
C     0.2531113   -1.7434440   -1.0216591
H    -0.6541356   -1.2535051   -1.3462847
C     0.4494193   -3.0628597   -1.3413779
H    -0.3083162   -3.5944309   -1.9054060
C     1.6251726   -3.7207967   -0.9552541
H     1.7670048   -4.7687404   -1.1927019
C     2.6109872   -3.0144177   -0.3183050
H     3.5525612   -3.4902813   -0.0646367
Bq        -2.7838586833    -0.0272008000     0.5806958667
Bq        -5.2881126738    -2.2784856168     1.6579277939
Bq        -5.2880272077    -2.2334599204     1.6361866034
Bq        -5.2879417415    -2.1884342241     1.6144454129
Bq        -5.2878562754    -2.1434085278     1.5927042224
Bq        -5.2877708092    -2.0983828314     1.5709630319
Bq        -5.2876853431    -2.0533571351     1.5492218413
Bq        -5.2875998770    -2.0083314388     1.5274806508
Bq        -5.2875144108    -1.9633057424     1.5057394603
Bq        -5.2874289447    -1.9182800461     1.4839982698
Bq        -5.2873434786    -1.8732543497     1.4622570793
Bq        -5.2872580124    -1.8282286534     1.4405158888
Bq        -5.2871725463    -1.7832029571     1.4187746982
Bq        -5.2870870801    -1.7381772607     1.3970335077
Bq        -5.2870016140    -1.6931515644     1.3752923172
Bq        -5.2869161479    -1.6481258681     1.3535511267
Bq        -5.2868306817    -1.6031001717     1.3318099362
Bq        -5.2867452156    -1.5580744754     1.3100687457
Bq        -5.2866597495    -1.5130487791     1.2883275551
Bq        -5.2865742833    -1.4680230827     1.2665863646
Bq        -5.2864888172    -1.4229973864     1.2448451741
Bq        -5.2864033510    -1.3779716901     1.2231039836
Bq        -5.2863178849    -1.3329459937     1.2013627931
Bq        -5.2862324188    -1.2879202974     1.1796216026
Bq        -5.2861469526    -1.2428946011     1.1578804120
Bq        -5.2860614865    -1.1978689047     1.1361392215
Bq        -5.2859760204    -1.1528432084     1.1143980310
Bq        -5.2858905542    -1.1078175120     1.0926568405
Bq        -5.2858050881    -1.0627918157     1.0709156500
Bq        -5.2857196219    -1.0177661194     1.0491744595
Bq        -5.2856341558    -0.9727404230     1.0274332690
Bq        -5.2855486897    -0.9277147267     1.0056920784
Bq        -5.2854632235    -0.8826890304     0.9839508879
Bq        -5.2853777574    -0.8376633340     0.9622096974
Bq        -5.2852922913    -0.7926376377     0.9404685069
Bq        -5.2852068251    -0.7476119414     0.9187273164
Bq        -5.2851213590    -0.7025862450     0.8969861259
Bq        -5.2850358928    -0.6575605487     0.8752449353
Bq        -5.2849504267    -0.6125348524     0.8535037448
Bq        -5.2848649606    -0.5675091560     0.8317625543
Bq        -5.2847794944    -0.5224834597     0.8100213638
Bq        -5.2846940283    -0.4774577634     0.7882801733
Bq        -5.2846085622    -0.4324320670     0.7665389828
Bq        -5.2845230960    -0.3874063707     0.7447977922
Bq        -5.2844376299    -0.3423806743     0.7230566017
Bq        -5.2843521637    -0.2973549780     0.7013154112
Bq        -5.2842666976    -0.2523292817     0.6795742207
Bq        -5.2841812315    -0.2073035853     0.6578330302
Bq        -5.2840957653    -0.1622778890     0.6360918397
Bq        -5.2840102992    -0.1172521927     0.6143506491
Bq        -5.2839248331    -0.0722264963     0.5926094586
Bq        -5.2838393669    -0.0272008000     0.5708682681
Bq        -5.2837539008     0.0178248963     0.5491270776
Bq        -5.2836684346     0.0628505927     0.5273858871
Bq        -5.2835829685     0.1078762890     0.5056446966
Bq        -5.2834975024     0.1529019853     0.4839035060
Bq        -5.2834120362     0.1979276817     0.4621623155
Bq        -5.2833265701     0.2429533780     0.4404211250
Bq        -5.2832411040     0.2879790743     0.4186799345
Bq        -5.2831556378     0.3330047707     0.3969387440
Bq        -5.2830701717     0.3780304670     0.3751975535
Bq        -5.2829847055     0.4230561634     0.3534563629
Bq        -5.2828992394     0.4680818597     0.3317151724
Bq        -5.2828137733     0.5131075560     0.3099739819
Bq        -5.2827283071     0.5581332524     0.2882327914
Bq        -5.2826428410     0.6031589487     0.2664916009
Bq        -5.2825573749     0.6481846450     0.2447504104
Bq        -5.2824719087     0.6932103414     0.2230092199
Bq        -5.2823864426     0.7382360377     0.2012680293
Bq        -5.2823009764     0.7832617340     0.1795268388
Bq        -5.2822155103     0.8282874304     0.1577856483
Bq        -5.2821300442     0.8733131267     0.1360444578
Bq        -5.2820445780     0.9183388230     0.1143032673
Bq        -5.2819591119     0.9633645194     0.0925620768
Bq        -5.2818736458     1.0083902157     0.0708208862
Bq        -5.2817881796     1.0534159120     0.0490796957
Bq        -5.2817027135     1.0984416084     0.0273385052
Bq        -5.2816172473     1.1434673047     0.0055973147
Bq        -5.2815317812     1.1884930011    -0.0161438758
Bq        -5.2814463151     1.2335186974    -0.0378850663
Bq        -5.2813608489     1.2785443937    -0.0596262569
Bq        -5.2812753828     1.3235700901    -0.0813674474
Bq        -5.2811899167     1.3685957864    -0.1031086379
Bq        -5.2811044505     1.4136214827    -0.1248498284
Bq        -5.2810189844     1.4586471791    -0.1465910189
Bq        -5.2809335182     1.5036728754    -0.1683322094
Bq        -5.2808480521     1.5486985717    -0.1900734000
Bq        -5.2807625860     1.5937242681    -0.2118145905
Bq        -5.2806771198     1.6387499644    -0.2335557810
Bq        -5.2805916537     1.6837756607    -0.2552969715
Bq        -5.2805061876     1.7288013571    -0.2770381620
Bq        -5.2804207214     1.7738270534    -0.2987793525
Bq        -5.2803352553     1.8188527497    -0.3205205431
Bq        -5.2802497892     1.8638784461    -0.3422617336
Bq        -5.2801643230     1.9089041424    -0.3640029241
Bq        -5.2800788569     1.9539298388    -0.3857441146
Bq        -5.2799933907     1.9989555351    -0.4074853051
Bq        -5.2799079246     2.0439812314    -0.4292264956
Bq        -5.2798224585     2.0890069278    -0.4509676862
Bq        -5.2797369923     2.1340326241    -0.4727088767
Bq        -5.2796515262     2.1790583204    -0.4944500672
Bq        -5.2795660601     2.2240840168    -0.5161912577
Bq        -5.2381130601    -2.2784856168     1.6581243459
Bq        -5.2380275940    -2.2334599204     1.6363831554
Bq        -5.2379421278    -2.1884342241     1.6146419649
Bq        -5.2378566617    -2.1434085278     1.5929007743
Bq        -5.2377711956    -2.0983828314     1.5711595838
Bq        -5.2376857294    -2.0533571351     1.5494183933
Bq        -5.2376002633    -2.0083314388     1.5276772028
Bq        -5.2375147972    -1.9633057424     1.5059360123
Bq        -5.2374293310    -1.9182800461     1.4841948218
Bq        -5.2373438649    -1.8732543497     1.4624536312
Bq        -5.2372583987    -1.8282286534     1.4407124407
Bq        -5.2371729326    -1.7832029571     1.4189712502
Bq        -5.2370874665    -1.7381772607     1.3972300597
Bq        -5.2370020003    -1.6931515644     1.3754888692
Bq        -5.2369165342    -1.6481258681     1.3537476787
Bq        -5.2368310681    -1.6031001717     1.3320064882
Bq        -5.2367456019    -1.5580744754     1.3102652976
Bq        -5.2366601358    -1.5130487791     1.2885241071
Bq        -5.2365746696    -1.4680230827     1.2667829166
Bq        -5.2364892035    -1.4229973864     1.2450417261
Bq        -5.2364037374    -1.3779716901     1.2233005356
Bq        -5.2363182712    -1.3329459937     1.2015593451
Bq        -5.2362328051    -1.2879202974     1.1798181545
Bq        -5.2361473390    -1.2428946011     1.1580769640
Bq        -5.2360618728    -1.1978689047     1.1363357735
Bq        -5.2359764067    -1.1528432084     1.1145945830
Bq        -5.2358909405    -1.1078175120     1.0928533925
Bq        -5.2358054744    -1.0627918157     1.0711122020
Bq        -5.2357200083    -1.0177661194     1.0493710114
Bq        -5.2356345421    -0.9727404230     1.0276298209
Bq        -5.2355490760    -0.9277147267     1.0058886304
Bq        -5.2354636099    -0.8826890304     0.9841474399
Bq        -5.2353781437    -0.8376633340     0.9624062494
Bq        -5.2352926776    -0.7926376377     0.9406650589
Bq        -5.2352072114    -0.7476119414     0.9189238683
Bq        -5.2351217453    -0.7025862450     0.8971826778
Bq        -5.2350362792    -0.6575605487     0.8754414873
Bq        -5.2349508130    -0.6125348524     0.8537002968
Bq        -5.2348653469    -0.5675091560     0.8319591063
Bq        -5.2347798808    -0.5224834597     0.8102179158
Bq        -5.2346944146    -0.4774577634     0.7884767252
Bq        -5.2346089485    -0.4324320670     0.7667355347
Bq        -5.2345234823    -0.3874063707     0.7449943442
Bq        -5.2344380162    -0.3423806743     0.7232531537
Bq        -5.2343525501    -0.2973549780     0.7015119632
Bq        -5.2342670839    -0.2523292817     0.6797707727
Bq        -5.2341816178    -0.2073035853     0.6580295821
Bq        -5.2340961517    -0.1622778890     0.6362883916
Bq        -5.2340106855    -0.1172521927     0.6145472011
Bq        -5.2339252194    -0.0722264963     0.5928060106
Bq        -5.2338397532    -0.0272008000     0.5710648201
Bq        -5.2337542871     0.0178248963     0.5493236296
Bq        -5.2336688210     0.0628505927     0.5275824391
Bq        -5.2335833548     0.1078762890     0.5058412485
Bq        -5.2334978887     0.1529019853     0.4841000580
Bq        -5.2334124226     0.1979276817     0.4623588675
Bq        -5.2333269564     0.2429533780     0.4406176770
Bq        -5.2332414903     0.2879790743     0.4188764865
Bq        -5.2331560241     0.3330047707     0.3971352960
Bq        -5.2330705580     0.3780304670     0.3753941054
Bq        -5.2329850919     0.4230561634     0.3536529149
Bq        -5.2328996257     0.4680818597     0.3319117244
Bq        -5.2328141596     0.5131075560     0.3101705339
Bq        -5.2327286935     0.5581332524     0.2884293434
Bq        -5.2326432273     0.6031589487     0.2666881529
Bq        -5.2325577612     0.6481846450     0.2449469623
Bq        -5.2324722951     0.6932103414     0.2232057718
Bq        -5.2323868289     0.7382360377     0.2014645813
Bq        -5.2323013628     0.7832617340     0.1797233908
Bq        -5.2322158966     0.8282874304     0.1579822003
Bq        -5.2321304305     0.8733131267     0.1362410098
Bq        -5.2320449644     0.9183388230     0.1144998192
Bq        -5.2319594982     0.9633645194     0.0927586287
Bq        -5.2318740321     1.0083902157     0.0710174382
Bq        -5.2317885660     1.0534159120     0.0492762477
Bq        -5.2317030998     1.0984416084     0.0275350572
Bq        -5.2316176337     1.1434673047     0.0057938667
Bq        -5.2315321675     1.1884930011    -0.0159473239
Bq        -5.2314467014     1.2335186974    -0.0376885144
Bq        -5.2313612353     1.2785443937    -0.0594297049
Bq        -5.2312757691     1.3235700901    -0.0811708954
Bq        -5.2311903030     1.3685957864    -0.1029120859
Bq        -5.2311048369     1.4136214827    -0.1246532764
Bq        -5.2310193707     1.4586471791    -0.1463944670
Bq        -5.2309339046     1.5036728754    -0.1681356575
Bq        -5.2308484384     1.5486985717    -0.1898768480
Bq        -5.2307629723     1.5937242681    -0.2116180385
Bq        -5.2306775062     1.6387499644    -0.2333592290
Bq        -5.2305920400     1.6837756607    -0.2551004195
Bq        -5.2305065739     1.7288013571    -0.2768416101
Bq        -5.2304211078     1.7738270534    -0.2985828006
Bq        -5.2303356416     1.8188527497    -0.3203239911
Bq        -5.2302501755     1.8638784461    -0.3420651816
Bq        -5.2301647093     1.9089041424    -0.3638063721
Bq        -5.2300792432     1.9539298388    -0.3855475626
Bq        -5.2299937771     1.9989555351    -0.4072887531
Bq        -5.2299083109     2.0439812314    -0.4290299437
Bq        -5.2298228448     2.0890069278    -0.4507711342

1
2
3
4
5
6
7
8
9
10
11
12
13
14
15
16
17
18
19
20
21
22
23
24
25
26
27
28
29
30
31
32
33
34
35
36
37
38
39
40
41
42
43
44
45
46
47
48
49
50
51
52
53
54
55
56
57
58
59
60
61
62
63
64
65
66
67
68
69
70
71
72
73
74
75
76
77
78
79
80
81
82
83
84
85
86
87
88
89
90
91
92
93
94
95
96
97
98
99
100
101
102
103
104
105
106
107
108
109
110
111
112
113
114
115
116
117
118
119
120
121
122
123
124
125
126
127
128
129
130
131
132
133
134
135
136
137
138
139
140
141
142
143
144
145
146
147
148
149
150
151
152
153
154
155
156
157
158
159
160
161
162
163
164
165
166
167
168
169
170
171
172
173
174
175
176
177
178
179
180
181
182
183
184
185
186
187
188
189
190
191
192
193
194
195
196
197
198
199
200
201
202
203
204
205
206
207
208
209
210
211
212
213
214
215
216
217
218
219
220
221
222
223
224
225
226
227
228
229
230
231
232
233
234
235
236

