%nproc=8
%mem=1000MB
# rb3lyp/6-311+g** NMR geom=connectivity

Title

0 1
C    -4.0500558   -0.5771862    0.8136712
H    -5.0263804   -1.0082727    1.0024760
C    -3.9381552    0.6617804    0.2400876
H    -4.8252424    1.2338890   -0.0111295
C    -2.6768410    1.2433246    0.0057578
C    -1.4974121    0.5051527    0.2848253
C    -1.6508332   -0.7338728    0.9404026
H    -0.7713646   -1.2730967    1.2633753
C    -2.8898548   -1.2624035    1.1994307
H    -2.9683706   -2.2124563    1.7152676
C    -2.5773185    2.5963696   -0.4192930
H    -3.4870728    3.1412239   -0.6474055
C    -1.3741895    3.2147896   -0.4364030
H    -1.2997315    4.2742019   -0.6578144
C    -0.1719488    2.4994090   -0.1734588
C    -0.2043917    1.1018437    0.0192689
C     1.0513491    3.2042560   -0.0676222
H     1.0427344    4.2819499   -0.1896997
C     2.1942091    2.5487446    0.2579577
H     3.1168527    3.0912848    0.4334727
C     2.2216473    1.1336562    0.2934990
C     1.0486931    0.3945528    0.0302412
C     3.4483363    0.4614633    0.5573939
H     4.3095794    1.0606054    0.8334846
C     3.5427346   -0.8855926    0.4749463
H     4.4731467   -1.3939704    0.7038822
C     2.4490052   -1.6474447   -0.0196319
C     1.2150704   -1.0057258   -0.3013573
C     0.2531113   -1.7434440   -1.0216591
H    -0.6541356   -1.2535051   -1.3462847
C     0.4494193   -3.0628597   -1.3413779
H    -0.3083162   -3.5944309   -1.9054060
C     1.6251726   -3.7207967   -0.9552541
H     1.7670048   -4.7687404   -1.1927019
C     2.6109872   -3.0144177   -0.3183050
H     3.5525612   -3.4902813   -0.0646367
Bq         2.1525715006     0.6151931321     0.2849950014
Bq         2.1529275675     0.6651327398     0.2825641990
Bq         2.1532836345     0.7150723475     0.2801333966
Bq         2.1536397015     0.7650119552     0.2777025942
Bq         2.1539957684     0.8149515629     0.2752717918
Bq         2.1543518354     0.8648911706     0.2728409895
Bq         2.1547079024     0.9148307783     0.2704101871
Bq         2.1550639694     0.9647703860     0.2679793847
Bq         2.1554200363     1.0147099936     0.2655485823
Bq         2.1557761033     1.0646496013     0.2631177799
Bq         2.1561321703     1.1145892090     0.2606869775
Bq         2.1564882372     1.1645288167     0.2582561752
Bq         2.1568443042     1.2144684244     0.2558253728
Bq         2.1572003712     1.2644080321     0.2533945704
Bq         2.1575564381     1.3143476398     0.2509637680
Bq         2.1579125051     1.3642872475     0.2485329656
Bq         2.1582685721     1.4142268552     0.2461021632
Bq         2.1586246391     1.4641664628     0.2436713609
Bq         2.1589807060     1.5141060705     0.2412405585
Bq         2.1593367730     1.5640456782     0.2388097561
Bq         2.1596928400     1.6139852859     0.2363789537
Bq         2.1600489069     1.6639248936     0.2339481513
Bq         2.1604049739     1.7138645013     0.2315173489
Bq         2.1607610409     1.7638041090     0.2290865466
Bq         2.1611171079     1.8137437167     0.2266557442
Bq         2.1614731748     1.8636833244     0.2242249418
Bq         2.1618292418     1.9136229320     0.2217941394
Bq         2.1621853088     1.9635625397     0.2193633370
Bq         2.1625413757     2.0135021474     0.2169325346
Bq         2.1628974427     2.0634417551     0.2145017323
Bq         2.1632535097     2.1133813628     0.2120709299
Bq         2.1636095767     2.1633209705     0.2096401275
Bq         2.1639656436     2.2132605782     0.2072093251
Bq         2.1643217106     2.2632001859     0.2047785227
Bq         2.1646777776     2.3131397936     0.2023477203
Bq         2.1650338445     2.3630794012     0.1999169180
Bq         2.1653899115     2.4130190089     0.1974861156
Bq         2.1657459785     2.4629586166     0.1950553132
Bq         2.1661020454     2.5128982243     0.1926245108
Bq         2.1664581124     2.5628378320     0.1901937084
Bq         2.1668141794     2.6127774397     0.1877629060
Bq         2.1671702464     2.6627170474     0.1853321037
Bq         2.1675263133     2.7126566551     0.1829013013
Bq         2.1678823803     2.7625962627     0.1804704989
Bq         2.1682384473     2.8125358704     0.1780396965
Bq         2.1685945142     2.8624754781     0.1756088941
Bq         2.1689505812     2.9124150858     0.1731780917
Bq         2.1693066482     2.9623546935     0.1707472894
Bq         2.1696627152     3.0122943012     0.1683164870
Bq         2.1700187821     3.0622339089     0.1658856846
Bq         2.1703748491     3.1121735166     0.1634548822
Bq         2.1707309161     3.1621131243     0.1610240798
Bq         2.1710869830     3.2120527319     0.1585932774
Bq         2.1714430500     3.2619923396     0.1561624751
Bq         2.1717991170     3.3119319473     0.1537316727
Bq         2.1721551840     3.3618715550     0.1513008703
Bq         2.1725112509     3.4118111627     0.1488700679
Bq         2.1728673179     3.4617507704     0.1464392655
Bq         2.1732233849     3.5116903781     0.1440084631
Bq         2.1735794518     3.5616299858     0.1415776608
Bq         2.1739355188     3.6115695935     0.1391468584
Bq         2.1742915858     3.6615092011     0.1367160560
Bq         2.1746476527     3.7114488088     0.1342852536
Bq         2.1750037197     3.7613884165     0.1318544512
Bq         2.1753597867     3.8113280242     0.1294236488
Bq         2.1757158537     3.8612676319     0.1269928465
Bq         2.1760719206     3.9112072396     0.1245620441
Bq         2.1764279876     3.9611468473     0.1221312417
Bq         2.1767840546     4.0110864550     0.1197004393
Bq         2.1771401215     4.0610260627     0.1172696369
Bq         2.1774961885     4.1109656703     0.1148388345
Bq         2.1778522555     4.1609052780     0.1124080322
Bq         2.1782083225     4.2108448857     0.1099772298
Bq         2.1785643894     4.2607844934     0.1075464274
Bq         2.1789204564     4.3107241011     0.1051156250
Bq         2.1927858212    -0.6832366678     0.3554425928
Bq         2.1931418882    -0.6332970601     0.3530117904
Bq         2.1934979552    -0.5833574524     0.3505809880
Bq         2.1938540222    -0.5334178447     0.3481501856
Bq         2.1942100891    -0.4834782370     0.3457193833
Bq         2.1945661561    -0.4335386293     0.3432885809
Bq         2.1949222231    -0.3835990216     0.3408577785
Bq         2.1952782900    -0.3336594139     0.3384269761
Bq         2.1956343570    -0.2837198063     0.3359961737
Bq         2.1959904240    -0.2337801986     0.3335653713
Bq         2.1963464910    -0.1838405909     0.3311345690
Bq         2.1967025579    -0.1339009832     0.3287037666
Bq         2.1970586249    -0.0839613755     0.3262729642
Bq         2.1974146919    -0.0340217678     0.3238421618
Bq         2.1977707588     0.0159178399     0.3214113594
Bq         2.1981268258     0.0658574476     0.3189805570
Bq         2.1984828928     0.1157970553     0.3165497547
Bq         2.1988389598     0.1657366629     0.3141189523
Bq         2.1991950267     0.2156762706     0.3116881499
Bq         2.1995510937     0.2656158783     0.3092573475
Bq         2.1999071607     0.3155554860     0.3068265451
Bq         2.2002632276     0.3654950937     0.3043957427
Bq         2.2006192946     0.4154347014     0.3019649404
Bq         2.2009753616     0.4653743091     0.2995341380
Bq         2.2013314286     0.5153139168     0.2971033356
Bq         2.2016874955     0.5652535245     0.2946725332
Bq         2.2020435625     0.6151931321     0.2922417308
Bq         2.2023996295     0.6651327398     0.2898109284
Bq         2.2027556964     0.7150723475     0.2873801261
Bq         2.2031117634     0.7650119552     0.2849493237
Bq         2.2034678304     0.8149515629     0.2825185213
Bq         2.2038238973     0.8648911706     0.2800877189
Bq         2.2041799643     0.9148307783     0.2776569165
Bq         2.2045360313     0.9647703860     0.2752261141
Bq         2.2048920983     1.0147099936     0.2727953118
Bq         2.2052481652     1.0646496013     0.2703645094
Bq         2.2056042322     1.1145892090     0.2679337070
Bq         2.2059602992     1.1645288167     0.2655029046
Bq         2.2063163661     1.2144684244     0.2630721022
Bq         2.2066724331     1.2644080321     0.2606412998
Bq         2.2070285001     1.3143476398     0.2582104975
Bq         2.2073845671     1.3642872475     0.2557796951
Bq         2.2077406340     1.4142268552     0.2533488927
Bq         2.2080967010     1.4641664628     0.2509180903
Bq         2.2084527680     1.5141060705     0.2484872879
Bq         2.2088088349     1.5640456782     0.2460564856
Bq         2.2091649019     1.6139852859     0.2436256832
Bq         2.2095209689     1.6639248936     0.2411948808
Bq         2.2098770359     1.7138645013     0.2387640784
Bq         2.2102331028     1.7638041090     0.2363332760
Bq         2.2105891698     1.8137437167     0.2339024736
Bq         2.2109452368     1.8636833244     0.2314716713
Bq         2.2113013037     1.9136229320     0.2290408689
Bq         2.2116573707     1.9635625397     0.2266100665
Bq         2.2120134377     2.0135021474     0.2241792641
Bq         2.2123695046     2.0634417551     0.2217484617
Bq         2.2127255716     2.1133813628     0.2193176593
Bq         2.2130816386     2.1633209705     0.2168868570
Bq         2.2134377056     2.2132605782     0.2144560546
Bq         2.2137937725     2.2632001859     0.2120252522
Bq         2.2141498395     2.3131397936     0.2095944498
Bq         2.2145059065     2.3630794012     0.2071636474
Bq         2.2148619734     2.4130190089     0.2047328450
Bq         2.2152180404     2.4629586166     0.2023020427
Bq         2.2155741074     2.5128982243     0.1998712403
Bq         2.2159301744     2.5628378320     0.1974404379
Bq         2.2162862413     2.6127774397     0.1950096355
Bq         2.2166423083     2.6627170474     0.1925788331
Bq         2.2169983753     2.7126566551     0.1901480307
Bq         2.2173544422     2.7625962627     0.1877172284
Bq         2.2177105092     2.8125358704     0.1852864260
Bq         2.2180665762     2.8624754781     0.1828556236
Bq         2.2184226432     2.9124150858     0.1804248212
Bq         2.2187787101     2.9623546935     0.1779940188
Bq         2.2191347771     3.0122943012     0.1755632164
Bq         2.2194908441     3.0622339089     0.1731324141
Bq         2.2198469110     3.1121735166     0.1707016117
Bq         2.2202029780     3.1621131243     0.1682708093
Bq         2.2205590450     3.2120527319     0.1658400069
Bq         2.2209151119     3.2619923396     0.1634092045
Bq         2.2212711789     3.3119319473     0.1609784021
Bq         2.2216272459     3.3618715550     0.1585475998
Bq         2.2219833129     3.4118111627     0.1561167974
Bq         2.2223393798     3.4617507704     0.1536859950
Bq         2.2226954468     3.5116903781     0.1512551926
Bq         2.2230515138     3.5616299858     0.1488243902
Bq         2.2234075807     3.6115695935     0.1463935878
Bq         2.2237636477     3.6615092011     0.1439627855
Bq         2.2241197147     3.7114488088     0.1415319831
Bq         2.2244757817     3.7613884165     0.1391011807
Bq         2.2248318486     3.8113280242     0.1366703783
Bq         2.2251879156     3.8612676319     0.1342395759
Bq         2.2255439826     3.9112072396     0.1318087735
Bq         2.2259000495     3.9611468473     0.1293779712
Bq         2.2262561165     4.0110864550     0.1269471688
Bq         2.2266121835     4.0610260627     0.1245163664
Bq         2.2269682505     4.1109656703     0.1220855640
Bq         2.2273243174     4.1609052780     0.1196547616
Bq         2.2276803844     4.2108448857     0.1172239592
Bq         2.2280364514     4.2607844934     0.1147931569
Bq         2.2283925183     4.3107241011     0.1123623545
Bq         2.2422578832    -0.6832366678     0.3626893223
Bq         2.2426139502    -0.6332970601     0.3602585199
Bq         2.2429700171    -0.5833574524     0.3578277175
Bq         2.2433260841    -0.5334178447     0.3553969151
Bq         2.2436821511    -0.4834782370     0.3529661127
Bq         2.2440382180    -0.4335386293     0.3505353103
Bq         2.2443942850    -0.3835990216     0.3481045080
Bq         2.2447503520    -0.3336594139     0.3456737056
Bq         2.2451064190    -0.2837198063     0.3432429032
Bq         2.2454624859    -0.2337801986     0.3408121008
Bq         2.2458185529    -0.1838405909     0.3383812984
Bq         2.2461746199    -0.1339009832     0.3359504960
Bq         2.2465306868    -0.0839613755     0.3335196937
Bq         2.2468867538    -0.0340217678     0.3310888913
Bq         2.2472428208     0.0159178399     0.3286580889
Bq         2.2475988877     0.0658574476     0.3262272865
Bq         2.2479549547     0.1157970553     0.3237964841
Bq         2.2483110217     0.1657366629     0.3213656817
Bq         2.2486670887     0.2156762706     0.3189348794
Bq         2.2490231556     0.2656158783     0.3165040770
Bq         2.2493792226     0.3155554860     0.3140732746
Bq         2.2497352896     0.3654950937     0.3116424722
Bq         2.2500913565     0.4154347014     0.3092116698
Bq         2.2504474235     0.4653743091     0.3067808674

1
2
3
4
5
6
7
8
9
10
11
12
13
14
15
16
17
18
19
20
21
22
23
24
25
26
27
28
29
30
31
32
33
34
35
36
37
38
39
40
41
42
43
44
45
46
47
48
49
50
51
52
53
54
55
56
57
58
59
60
61
62
63
64
65
66
67
68
69
70
71
72
73
74
75
76
77
78
79
80
81
82
83
84
85
86
87
88
89
90
91
92
93
94
95
96
97
98
99
100
101
102
103
104
105
106
107
108
109
110
111
112
113
114
115
116
117
118
119
120
121
122
123
124
125
126
127
128
129
130
131
132
133
134
135
136
137
138
139
140
141
142
143
144
145
146
147
148
149
150
151
152
153
154
155
156
157
158
159
160
161
162
163
164
165
166
167
168
169
170
171
172
173
174
175
176
177
178
179
180
181
182
183
184
185
186
187
188
189
190
191
192
193
194
195
196
197
198
199
200
201
202
203
204
205
206
207
208
209
210
211
212
213
214
215
216
217
218
219
220
221
222
223
224
225
226
227
228
229
230
231
232
233
234
235
236

