%nproc=8
%mem=1000MB
# rb3lyp/6-311+g** NMR geom=connectivity

Title

0 1
C    -4.0500558   -0.5771862    0.8136712
H    -5.0263804   -1.0082727    1.0024760
C    -3.9381552    0.6617804    0.2400876
H    -4.8252424    1.2338890   -0.0111295
C    -2.6768410    1.2433246    0.0057578
C    -1.4974121    0.5051527    0.2848253
C    -1.6508332   -0.7338728    0.9404026
H    -0.7713646   -1.2730967    1.2633753
C    -2.8898548   -1.2624035    1.1994307
H    -2.9683706   -2.2124563    1.7152676
C    -2.5773185    2.5963696   -0.4192930
H    -3.4870728    3.1412239   -0.6474055
C    -1.3741895    3.2147896   -0.4364030
H    -1.2997315    4.2742019   -0.6578144
C    -0.1719488    2.4994090   -0.1734588
C    -0.2043917    1.1018437    0.0192689
C     1.0513491    3.2042560   -0.0676222
H     1.0427344    4.2819499   -0.1896997
C     2.1942091    2.5487446    0.2579577
H     3.1168527    3.0912848    0.4334727
C     2.2216473    1.1336562    0.2934990
C     1.0486931    0.3945528    0.0302412
C     3.4483363    0.4614633    0.5573939
H     4.3095794    1.0606054    0.8334846
C     3.5427346   -0.8855926    0.4749463
H     4.4731467   -1.3939704    0.7038822
C     2.4490052   -1.6474447   -0.0196319
C     1.2150704   -1.0057258   -0.3013573
C     0.2531113   -1.7434440   -1.0216591
H    -0.6541356   -1.2535051   -1.3462847
C     0.4494193   -3.0628597   -1.3413779
H    -0.3083162   -3.5944309   -1.9054060
C     1.6251726   -3.7207967   -0.9552541
H     1.7670048   -4.7687404   -1.1927019
C     2.6109872   -3.0144177   -0.3183050
H     3.5525612   -3.4902813   -0.0646367
Bq         2.2047126702    -3.1369252950    -0.5433131465
Bq         2.1992094335    -3.0887288037    -0.5311965212
Bq         2.1937061968    -3.0405323123    -0.5190798960
Bq         2.1882029601    -2.9923358210    -0.5069632708
Bq         2.1826997234    -2.9441393296    -0.4948466455
Bq         2.1771964867    -2.8959428383    -0.4827300203
Bq         2.1716932500    -2.8477463469    -0.4706133951
Bq         2.1661900134    -2.7995498555    -0.4584967698
Bq         2.1606867767    -2.7513533642    -0.4463801446
Bq         2.1551835400    -2.7031568728    -0.4342635194
Bq         2.1496803033    -2.6549603815    -0.4221468942
Bq         2.1441770666    -2.6067638901    -0.4100302689
Bq         2.1386738299    -2.5585673988    -0.3979136437
Bq         2.1331705932    -2.5103709074    -0.3857970185
Bq         2.1276673566    -2.4621744160    -0.3736803932
Bq         2.1221641199    -2.4139779247    -0.3615637680
Bq         2.1166608832    -2.3657814333    -0.3494471428
Bq         2.1111576465    -2.3175849420    -0.3373305176
Bq         2.1056544098    -2.2693884506    -0.3252138923
Bq         2.1001511731    -2.2211919593    -0.3130972671
Bq         2.0946479364    -2.1729954679    -0.3009806419
Bq         2.0891446998    -2.1247989766    -0.2888640166
Bq         2.0836414631    -2.0766024852    -0.2767473914
Bq         2.0781382264    -2.0284059938    -0.2646307662
Bq         2.0726349897    -1.9802095025    -0.2525141410
Bq         2.0671317530    -1.9320130111    -0.2403975157
Bq         2.0616285163    -1.8838165198    -0.2282808905
Bq         2.0561252796    -1.8356200284    -0.2161642653
Bq         2.0506220430    -1.7874235371    -0.2040476400
Bq         2.0451188063    -1.7392270457    -0.1919310148
Bq         2.0396155696    -1.6910305543    -0.1798143896
Bq         2.0341123329    -1.6428340630    -0.1676977644
Bq         2.0286090962    -1.5946375716    -0.1555811391
Bq         2.0231058595    -1.5464410803    -0.1434645139
Bq         2.0176026228    -1.4982445889    -0.1313478887
Bq         2.0120993861    -1.4500480976    -0.1192312634
Bq         2.0065961495    -1.4018516062    -0.1071146382
Bq         2.0010929128    -1.3536551149    -0.0949980130
Bq         1.9955896761    -1.3054586235    -0.0828813877
Bq         1.9900864394    -1.2572621321    -0.0707647625
Bq         1.9845832027    -1.2090656408    -0.0586481373
Bq         1.9790799660    -1.1608691494    -0.0465315121
Bq         1.9735767293    -1.1126726581    -0.0344148868
Bq         1.9680734927    -1.0644761667    -0.0222982616
Bq         1.9625702560    -1.0162796754    -0.0101816364
Bq         1.9570670193    -0.9680831840     0.0019349889
Bq         1.9515637826    -0.9198866927     0.0140516141
Bq         1.9460605459    -0.8716902013     0.0261682393
Bq         1.9405573092    -0.8234937099     0.0382848645
Bq         1.9350540725    -0.7752972186     0.0504014898
Bq         1.9295508359    -0.7271007272     0.0625181150
Bq         1.9240475992    -0.6789042359     0.0746347402
Bq         1.9185443625    -0.6307077445     0.0867513655
Bq         1.9130411258    -0.5825112532     0.0988679907
Bq         1.9075378891    -0.5343147618     0.1109846159
Bq         1.9020346524    -0.4861182704     0.1231012411
Bq         1.8965314157    -0.4379217791     0.1352178664
Bq         1.8910281791    -0.3897252877     0.1473344916
Bq         1.8855249424    -0.3415287964     0.1594511168
Bq         1.8800217057    -0.2933323050     0.1715677421
Bq         1.8745184690    -0.2451358137     0.1836843673
Bq         1.8690152323    -0.1969393223     0.1958009925
Bq         1.8635119956    -0.1487428310     0.2079176177
Bq         1.8580087589    -0.1005463396     0.2200342430
Bq         1.8525055223    -0.0523498482     0.2321508682
Bq         1.8470022856    -0.0041533569     0.2442674934
Bq         1.8414990489     0.0440431345     0.2563841187
Bq         2.4373471541    -4.7756060011    -0.9346017104
Bq         2.4318439175    -4.7274095098    -0.9224850852
Bq         2.4263406808    -4.6792130184    -0.9103684600
Bq         2.4208374441    -4.6310165271    -0.8982518347
Bq         2.4153342074    -4.5828200357    -0.8861352095
Bq         2.4098309707    -4.5346235444    -0.8740185843
Bq         2.4043277340    -4.4864270530    -0.8619019590
Bq         2.3988244973    -4.4382305616    -0.8497853338
Bq         2.3933212607    -4.3900340703    -0.8376687086
Bq         2.3878180240    -4.3418375789    -0.8255520834
Bq         2.3823147873    -4.2936410876    -0.8134354581
Bq         2.3768115506    -4.2454445962    -0.8013188329
Bq         2.3713083139    -4.1972481049    -0.7892022077
Bq         2.3658050772    -4.1490516135    -0.7770855824
Bq         2.3603018405    -4.1008551222    -0.7649689572
Bq         2.3547986039    -4.0526586308    -0.7528523320
Bq         2.3492953672    -4.0044621394    -0.7407357068
Bq         2.3437921305    -3.9562656481    -0.7286190815
Bq         2.3382888938    -3.9080691567    -0.7165024563
Bq         2.3327856571    -3.8598726654    -0.7043858311
Bq         2.3272824204    -3.8116761740    -0.6922692058
Bq         2.3217791837    -3.7634796827    -0.6801525806
Bq         2.3162759471    -3.7152831913    -0.6680359554
Bq         2.3107727104    -3.6670866999    -0.6559193302
Bq         2.3052694737    -3.6188902086    -0.6438027049
Bq         2.2997662370    -3.5706937172    -0.6316860797
Bq         2.2942630003    -3.5224972259    -0.6195694545
Bq         2.2887597636    -3.4743007345    -0.6074528292
Bq         2.2832565269    -3.4261042432    -0.5953362040
Bq         2.2777532902    -3.3779077518    -0.5832195788
Bq         2.2722500536    -3.3297112605    -0.5711029536
Bq         2.2667468169    -3.2815147691    -0.5589863283
Bq         2.2612435802    -3.2333182777    -0.5468697031
Bq         2.2557403435    -3.1851217864    -0.5347530779
Bq         2.2502371068    -3.1369252950    -0.5226364526
Bq         2.2447338701    -3.0887288037    -0.5105198274
Bq         2.2392306334    -3.0405323123    -0.4984032022
Bq         2.2337273968    -2.9923358210    -0.4862865770
Bq         2.2282241601    -2.9441393296    -0.4741699517
Bq         2.2227209234    -2.8959428383    -0.4620533265
Bq         2.2172176867    -2.8477463469    -0.4499367013
Bq         2.2117144500    -2.7995498555    -0.4378200760
Bq         2.2062112133    -2.7513533642    -0.4257034508
Bq         2.2007079766    -2.7031568728    -0.4135868256
Bq         2.1952047400    -2.6549603815    -0.4014702003
Bq         2.1897015033    -2.6067638901    -0.3893535751
Bq         2.1841982666    -2.5585673988    -0.3772369499
Bq         2.1786950299    -2.5103709074    -0.3651203247
Bq         2.1731917932    -2.4621744160    -0.3530036994
Bq         2.1676885565    -2.4139779247    -0.3408870742
Bq         2.1621853198    -2.3657814333    -0.3287704490
Bq         2.1566820832    -2.3175849420    -0.3166538237
Bq         2.1511788465    -2.2693884506    -0.3045371985
Bq         2.1456756098    -2.2211919593    -0.2924205733
Bq         2.1401723731    -2.1729954679    -0.2803039481
Bq         2.1346691364    -2.1247989766    -0.2681873228
Bq         2.1291658997    -2.0766024852    -0.2560706976
Bq         2.1236626630    -2.0284059938    -0.2439540724
Bq         2.1181594264    -1.9802095025    -0.2318374471
Bq         2.1126561897    -1.9320130111    -0.2197208219
Bq         2.1071529530    -1.8838165198    -0.2076041967
Bq         2.1016497163    -1.8356200284    -0.1954875715
Bq         2.0961464796    -1.7874235371    -0.1833709462
Bq         2.0906432429    -1.7392270457    -0.1712543210
Bq         2.0851400062    -1.6910305543    -0.1591376958
Bq         2.0796367696    -1.6428340630    -0.1470210705
Bq         2.0741335329    -1.5946375716    -0.1349044453
Bq         2.0686302962    -1.5464410803    -0.1227878201
Bq         2.0631270595    -1.4982445889    -0.1106711949
Bq         2.0576238228    -1.4500480976    -0.0985545696
Bq         2.0521205861    -1.4018516062    -0.0864379444
Bq         2.0466173494    -1.3536551149    -0.0743213192
Bq         2.0411141127    -1.3054586235    -0.0622046939
Bq         2.0356108761    -1.2572621321    -0.0500880687
Bq         2.0301076394    -1.2090656408    -0.0379714435
Bq         2.0246044027    -1.1608691494    -0.0258548182
Bq         2.0191011660    -1.1126726581    -0.0137381930
Bq         2.0135979293    -1.0644761667    -0.0016215678
Bq         2.0080946926    -1.0162796754     0.0104950574
Bq         2.0025914559    -0.9680831840     0.0226116827
Bq         1.9970882193    -0.9198866927     0.0347283079
Bq         1.9915849826    -0.8716902013     0.0468449331
Bq         1.9860817459    -0.8234937099     0.0589615584
Bq         1.9805785092    -0.7752972186     0.0710781836
Bq         1.9750752725    -0.7271007272     0.0831948088
Bq         1.9695720358    -0.6789042359     0.0953114340
Bq         1.9640687991    -0.6307077445     0.1074280593
Bq         1.9585655625    -0.5825112532     0.1195446845
Bq         1.9530623258    -0.5343147618     0.1316613097
Bq         1.9475590891    -0.4861182704     0.1437779350
Bq         1.9420558524    -0.4379217791     0.1558945602
Bq         1.9365526157    -0.3897252877     0.1680111854
Bq         1.9310493790    -0.3415287964     0.1801278106
Bq         1.9255461423    -0.2933323050     0.1922444359
Bq         1.9200429057    -0.2451358137     0.2043610611
Bq         1.9145396690    -0.1969393223     0.2164776863
Bq         1.9090364323    -0.1487428310     0.2285943116
Bq         1.9035331956    -0.1005463396     0.2407109368
Bq         1.8980299589    -0.0523498482     0.2528275620
Bq         1.8925267222    -0.0041533569     0.2649441872
Bq         1.8870234855     0.0440431345     0.2770608125
Bq         2.4828715908    -4.7756060011    -0.9139250166
Bq         2.4773683541    -4.7274095098    -0.9018083914
Bq         2.4718651174    -4.6792130184    -0.8896917662
Bq         2.4663618807    -4.6310165271    -0.8775751409
Bq         2.4608586441    -4.5828200357    -0.8654585157
Bq         2.4553554074    -4.5346235444    -0.8533418905
Bq         2.4498521707    -4.4864270530    -0.8412252652
Bq         2.4443489340    -4.4382305616    -0.8291086400
Bq         2.4388456973    -4.3900340703    -0.8169920148
Bq         2.4333424606    -4.3418375789    -0.8048753895
Bq         2.4278392239    -4.2936410876    -0.7927587643
Bq         2.4223359873    -4.2454445962    -0.7806421391
Bq         2.4168327506    -4.1972481049    -0.7685255139
Bq         2.4113295139    -4.1490516135    -0.7564088886
Bq         2.4058262772    -4.1008551222    -0.7442922634
Bq         2.4003230405    -4.0526586308    -0.7321756382
Bq         2.3948198038    -4.0044621394    -0.7200590129
Bq         2.3893165671    -3.9562656481    -0.7079423877
Bq         2.3838133305    -3.9080691567    -0.6958257625
Bq         2.3783100938    -3.8598726654    -0.6837091373
Bq         2.3728068571    -3.8116761740    -0.6715925120
Bq         2.3673036204    -3.7634796827    -0.6594758868
Bq         2.3618003837    -3.7152831913    -0.6473592616
Bq         2.3562971470    -3.6670866999    -0.6352426363
Bq         2.3507939103    -3.6188902086    -0.6231260111
Bq         2.3452906736    -3.5706937172    -0.6110093859
Bq         2.3397874370    -3.5224972259    -0.5988927607
Bq         2.3342842003    -3.4743007345    -0.5867761354
Bq         2.3287809636    -3.4261042432    -0.5746595102
Bq         2.3232777269    -3.3779077518    -0.5625428850
Bq         2.3177744902    -3.3297112605    -0.5504262597
Bq         2.3122712535    -3.2815147691    -0.5383096345

1
2
3
4
5
6
7
8
9
10
11
12
13
14
15
16
17
18
19
20
21
22
23
24
25
26
27
28
29
30
31
32
33
34
35
36
37
38
39
40
41
42
43
44
45
46
47
48
49
50
51
52
53
54
55
56
57
58
59
60
61
62
63
64
65
66
67
68
69
70
71
72
73
74
75
76
77
78
79
80
81
82
83
84
85
86
87
88
89
90
91
92
93
94
95
96
97
98
99
100
101
102
103
104
105
106
107
108
109
110
111
112
113
114
115
116
117
118
119
120
121
122
123
124
125
126
127
128
129
130
131
132
133
134
135
136
137
138
139
140
141
142
143
144
145
146
147
148
149
150
151
152
153
154
155
156
157
158
159
160
161
162
163
164
165
166
167
168
169
170
171
172
173
174
175
176
177
178
179
180
181
182
183
184
185
186
187
188
189
190
191
192
193
194
195
196
197
198
199
200
201
202
203
204
205
206
207
208
209
210
211
212
213
214
215
216
217
218
219
220
221
222
223
224
225
226
227
228
229
230
231
232
233
234
235
236

