%nproc=8
%mem=1000MB
# rb3lyp/6-311+g** NMR geom=connectivity

Title

0 1
C    -4.0500558   -0.5771862    0.8136712
H    -5.0263804   -1.0082727    1.0024760
C    -3.9381552    0.6617804    0.2400876
H    -4.8252424    1.2338890   -0.0111295
C    -2.6768410    1.2433246    0.0057578
C    -1.4974121    0.5051527    0.2848253
C    -1.6508332   -0.7338728    0.9404026
H    -0.7713646   -1.2730967    1.2633753
C    -2.8898548   -1.2624035    1.1994307
H    -2.9683706   -2.2124563    1.7152676
C    -2.5773185    2.5963696   -0.4192930
H    -3.4870728    3.1412239   -0.6474055
C    -1.3741895    3.2147896   -0.4364030
H    -1.2997315    4.2742019   -0.6578144
C    -0.1719488    2.4994090   -0.1734588
C    -0.2043917    1.1018437    0.0192689
C     1.0513491    3.2042560   -0.0676222
H     1.0427344    4.2819499   -0.1896997
C     2.1942091    2.5487446    0.2579577
H     3.1168527    3.0912848    0.4334727
C     2.2216473    1.1336562    0.2934990
C     1.0486931    0.3945528    0.0302412
C     3.4483363    0.4614633    0.5573939
H     4.3095794    1.0606054    0.8334846
C     3.5427346   -0.8855926    0.4749463
H     4.4731467   -1.3939704    0.7038822
C     2.4490052   -1.6474447   -0.0196319
C     1.2150704   -1.0057258   -0.3013573
C     0.2531113   -1.7434440   -1.0216591
H    -0.6541356   -1.2535051   -1.3462847
C     0.4494193   -3.0628597   -1.3413779
H    -0.3083162   -3.5944309   -1.9054060
C     1.6251726   -3.7207967   -0.9552541
H     1.7670048   -4.7687404   -1.1927019
C     2.6109872   -3.0144177   -0.3183050
H     3.5525612   -3.4902813   -0.0646367
Bq        -5.1299090836     2.0439812314    -0.4286368397
Bq        -5.1298236174     2.0890069278    -0.4503780302
Bq        -5.1297381513     2.1340326241    -0.4721192208
Bq        -5.1296526852     2.1790583204    -0.4938604113
Bq        -5.1295672190     2.2240840168    -0.5156016018
Bq        -5.0881142191    -2.2784856168     1.6587140018
Bq        -5.0880287530    -2.2334599204     1.6369728113
Bq        -5.0879432868    -2.1884342241     1.6152316208
Bq        -5.0878578207    -2.1434085278     1.5934904303
Bq        -5.0877723546    -2.0983828314     1.5717492397
Bq        -5.0876868884    -2.0533571351     1.5500080492
Bq        -5.0876014223    -2.0083314388     1.5282668587
Bq        -5.0875159561    -1.9633057424     1.5065256682
Bq        -5.0874304900    -1.9182800461     1.4847844777
Bq        -5.0873450239    -1.8732543497     1.4630432872
Bq        -5.0872595577    -1.8282286534     1.4413020966
Bq        -5.0871740916    -1.7832029571     1.4195609061
Bq        -5.0870886255    -1.7381772607     1.3978197156
Bq        -5.0870031593    -1.6931515644     1.3760785251
Bq        -5.0869176932    -1.6481258681     1.3543373346
Bq        -5.0868322270    -1.6031001717     1.3325961441
Bq        -5.0867467609    -1.5580744754     1.3108549535
Bq        -5.0866612948    -1.5130487791     1.2891137630
Bq        -5.0865758286    -1.4680230827     1.2673725725
Bq        -5.0864903625    -1.4229973864     1.2456313820
Bq        -5.0864048964    -1.3779716901     1.2238901915
Bq        -5.0863194302    -1.3329459937     1.2021490010
Bq        -5.0862339641    -1.2879202974     1.1804078105
Bq        -5.0861484979    -1.2428946011     1.1586666199
Bq        -5.0860630318    -1.1978689047     1.1369254294
Bq        -5.0859775657    -1.1528432084     1.1151842389
Bq        -5.0858920995    -1.1078175120     1.0934430484
Bq        -5.0858066334    -1.0627918157     1.0717018579
Bq        -5.0857211673    -1.0177661194     1.0499606674
Bq        -5.0856357011    -0.9727404230     1.0282194768
Bq        -5.0855502350    -0.9277147267     1.0064782863
Bq        -5.0854647688    -0.8826890304     0.9847370958
Bq        -5.0853793027    -0.8376633340     0.9629959053
Bq        -5.0852938366    -0.7926376377     0.9412547148
Bq        -5.0852083704    -0.7476119414     0.9195135243
Bq        -5.0851229043    -0.7025862450     0.8977723337
Bq        -5.0850374382    -0.6575605487     0.8760311432
Bq        -5.0849519720    -0.6125348524     0.8542899527
Bq        -5.0848665059    -0.5675091560     0.8325487622
Bq        -5.0847810397    -0.5224834597     0.8108075717
Bq        -5.0846955736    -0.4774577634     0.7890663812
Bq        -5.0846101075    -0.4324320670     0.7673251906
Bq        -5.0845246413    -0.3874063707     0.7455840001
Bq        -5.0844391752    -0.3423806743     0.7238428096
Bq        -5.0843537091    -0.2973549780     0.7021016191
Bq        -5.0842682429    -0.2523292817     0.6803604286
Bq        -5.0841827768    -0.2073035853     0.6586192381
Bq        -5.0840973106    -0.1622778890     0.6368780475
Bq        -5.0840118445    -0.1172521927     0.6151368570
Bq        -5.0839263784    -0.0722264963     0.5933956665
Bq        -5.0838409122    -0.0272008000     0.5716544760
Bq        -5.0837554461     0.0178248963     0.5499132855
Bq        -5.0836699800     0.0628505927     0.5281720950
Bq        -5.0835845138     0.1078762890     0.5064309044
Bq        -5.0834990477     0.1529019853     0.4846897139
Bq        -5.0834135815     0.1979276817     0.4629485234
Bq        -5.0833281154     0.2429533780     0.4412073329
Bq        -5.0832426493     0.2879790743     0.4194661424
Bq        -5.0831571831     0.3330047707     0.3977249519
Bq        -5.0830717170     0.3780304670     0.3759837613
Bq        -5.0829862509     0.4230561634     0.3542425708
Bq        -5.0829007847     0.4680818597     0.3325013803
Bq        -5.0828153186     0.5131075560     0.3107601898
Bq        -5.0827298524     0.5581332524     0.2890189993
Bq        -5.0826443863     0.6031589487     0.2672778088
Bq        -5.0825589202     0.6481846450     0.2455366183
Bq        -5.0824734540     0.6932103414     0.2237954277
Bq        -5.0823879879     0.7382360377     0.2020542372
Bq        -5.0823025218     0.7832617340     0.1803130467
Bq        -5.0822170556     0.8282874304     0.1585718562
Bq        -5.0821315895     0.8733131267     0.1368306657
Bq        -5.0820461233     0.9183388230     0.1150894752
Bq        -5.0819606572     0.9633645194     0.0933482846
Bq        -5.0818751911     1.0083902157     0.0716070941
Bq        -5.0817897249     1.0534159120     0.0498659036
Bq        -5.0817042588     1.0984416084     0.0281247131
Bq        -5.0816187927     1.1434673047     0.0063835226
Bq        -5.0815333265     1.1884930011    -0.0153576679
Bq        -5.0814478604     1.2335186974    -0.0370988585
Bq        -5.0813623942     1.2785443937    -0.0588400490
Bq        -5.0812769281     1.3235700901    -0.0805812395
Bq        -5.0811914620     1.3685957864    -0.1023224300
Bq        -5.0811059958     1.4136214827    -0.1240636205
Bq        -5.0810205297     1.4586471791    -0.1458048110
Bq        -5.0809350636     1.5036728754    -0.1675460016
Bq        -5.0808495974     1.5486985717    -0.1892871921
Bq        -5.0807641313     1.5937242681    -0.2110283826
Bq        -5.0806786652     1.6387499644    -0.2327695731
Bq        -5.0805931990     1.6837756607    -0.2545107636
Bq        -5.0805077329     1.7288013571    -0.2762519541
Bq        -5.0804222667     1.7738270534    -0.2979931447
Bq        -5.0803368006     1.8188527497    -0.3197343352
Bq        -5.0802513345     1.8638784461    -0.3414755257
Bq        -5.0801658683     1.9089041424    -0.3632167162
Bq        -5.0800804022     1.9539298388    -0.3849579067
Bq        -5.0799949361     1.9989555351    -0.4066990972
Bq        -5.0799094699     2.0439812314    -0.4284402878
Bq        -5.0798240038     2.0890069278    -0.4501814783
Bq        -5.0797385376     2.1340326241    -0.4719226688
Bq        -5.0796530715     2.1790583204    -0.4936638593
Bq        -5.0795676054     2.2240840168    -0.5154050498
Bq        -5.0381146054    -2.2784856168     1.6589105538
Bq        -5.0380291393    -2.2334599204     1.6371693633
Bq        -5.0379436732    -2.1884342241     1.6154281727
Bq        -5.0378582070    -2.1434085278     1.5936869822
Bq        -5.0377727409    -2.0983828314     1.5719457917
Bq        -5.0376872747    -2.0533571351     1.5502046012
Bq        -5.0376018086    -2.0083314388     1.5284634107
Bq        -5.0375163425    -1.9633057424     1.5067222202
Bq        -5.0374308763    -1.9182800461     1.4849810296
Bq        -5.0373454102    -1.8732543497     1.4632398391
Bq        -5.0372599441    -1.8282286534     1.4414986486
Bq        -5.0371744779    -1.7832029571     1.4197574581
Bq        -5.0370890118    -1.7381772607     1.3980162676
Bq        -5.0370035456    -1.6931515644     1.3762750771
Bq        -5.0369180795    -1.6481258681     1.3545338866
Bq        -5.0368326134    -1.6031001717     1.3327926960
Bq        -5.0367471472    -1.5580744754     1.3110515055
Bq        -5.0366616811    -1.5130487791     1.2893103150
Bq        -5.0365762150    -1.4680230827     1.2675691245
Bq        -5.0364907488    -1.4229973864     1.2458279340
Bq        -5.0364052827    -1.3779716901     1.2240867435
Bq        -5.0363198165    -1.3329459937     1.2023455529
Bq        -5.0362343504    -1.2879202974     1.1806043624
Bq        -5.0361488843    -1.2428946011     1.1588631719
Bq        -5.0360634181    -1.1978689047     1.1371219814
Bq        -5.0359779520    -1.1528432084     1.1153807909
Bq        -5.0358924859    -1.1078175120     1.0936396004
Bq        -5.0358070197    -1.0627918157     1.0718984098
Bq        -5.0357215536    -1.0177661194     1.0501572193
Bq        -5.0356360874    -0.9727404230     1.0284160288
Bq        -5.0355506213    -0.9277147267     1.0066748383
Bq        -5.0354651552    -0.8826890304     0.9849336478
Bq        -5.0353796890    -0.8376633340     0.9631924573
Bq        -5.0352942229    -0.7926376377     0.9414512667
Bq        -5.0352087568    -0.7476119414     0.9197100762
Bq        -5.0351232906    -0.7025862450     0.8979688857
Bq        -5.0350378245    -0.6575605487     0.8762276952
Bq        -5.0349523583    -0.6125348524     0.8544865047
Bq        -5.0348668922    -0.5675091560     0.8327453142
Bq        -5.0347814261    -0.5224834597     0.8110041236
Bq        -5.0346959599    -0.4774577634     0.7892629331
Bq        -5.0346104938    -0.4324320670     0.7675217426
Bq        -5.0345250277    -0.3874063707     0.7457805521
Bq        -5.0344395615    -0.3423806743     0.7240393616
Bq        -5.0343540954    -0.2973549780     0.7022981711
Bq        -5.0342686292    -0.2523292817     0.6805569805
Bq        -5.0341831631    -0.2073035853     0.6588157900
Bq        -5.0340976970    -0.1622778890     0.6370745995
Bq        -5.0340122308    -0.1172521927     0.6153334090
Bq        -5.0339267647    -0.0722264963     0.5935922185
Bq        -5.0338412986    -0.0272008000     0.5718510280
Bq        -5.0337558324     0.0178248963     0.5501098375
Bq        -5.0336703663     0.0628505927     0.5283686469
Bq        -5.0335849001     0.1078762890     0.5066274564
Bq        -5.0334994340     0.1529019853     0.4848862659
Bq        -5.0334139679     0.1979276817     0.4631450754
Bq        -5.0333285017     0.2429533780     0.4414038849
Bq        -5.0332430356     0.2879790743     0.4196626944
Bq        -5.0331575695     0.3330047707     0.3979215038
Bq        -5.0330721033     0.3780304670     0.3761803133
Bq        -5.0329866372     0.4230561634     0.3544391228
Bq        -5.0329011711     0.4680818597     0.3326979323
Bq        -5.0328157049     0.5131075560     0.3109567418
Bq        -5.0327302388     0.5581332524     0.2892155513
Bq        -5.0326447726     0.6031589487     0.2674743607
Bq        -5.0325593065     0.6481846450     0.2457331702
Bq        -5.0324738404     0.6932103414     0.2239919797
Bq        -5.0323883742     0.7382360377     0.2022507892
Bq        -5.0323029081     0.7832617340     0.1805095987
Bq        -5.0322174420     0.8282874304     0.1587684082
Bq        -5.0321319758     0.8733131267     0.1370272176
Bq        -5.0320465097     0.9183388230     0.1152860271
Bq        -5.0319610435     0.9633645194     0.0935448366
Bq        -5.0318755774     1.0083902157     0.0718036461
Bq        -5.0317901113     1.0534159120     0.0500624556
Bq        -5.0317046451     1.0984416084     0.0283212651
Bq        -5.0316191790     1.1434673047     0.0065800745
Bq        -5.0315337129     1.1884930011    -0.0151611160
Bq        -5.0314482467     1.2335186974    -0.0369023065
Bq        -5.0313627806     1.2785443937    -0.0586434970
Bq        -5.0312773144     1.3235700901    -0.0803846875
Bq        -5.0311918483     1.3685957864    -0.1021258780
Bq        -5.0311063822     1.4136214827    -0.1238670686
Bq        -5.0310209160     1.4586471791    -0.1456082591
Bq        -5.0309354499     1.5036728754    -0.1673494496
Bq        -5.0308499838     1.5486985717    -0.1890906401
Bq        -5.0307645176     1.5937242681    -0.2108318306
Bq        -5.0306790515     1.6387499644    -0.2325730211
Bq        -5.0305935853     1.6837756607    -0.2543142116
Bq        -5.0305081192     1.7288013571    -0.2760554022
Bq        -5.0304226531     1.7738270534    -0.2977965927
Bq        -5.0303371869     1.8188527497    -0.3195377832
Bq        -5.0302517208     1.8638784461    -0.3412789737
Bq        -5.0301662547     1.9089041424    -0.3630201642

1
2
3
4
5
6
7
8
9
10
11
12
13
14
15
16
17
18
19
20
21
22
23
24
25
26
27
28
29
30
31
32
33
34
35
36
37
38
39
40
41
42
43
44
45
46
47
48
49
50
51
52
53
54
55
56
57
58
59
60
61
62
63
64
65
66
67
68
69
70
71
72
73
74
75
76
77
78
79
80
81
82
83
84
85
86
87
88
89
90
91
92
93
94
95
96
97
98
99
100
101
102
103
104
105
106
107
108
109
110
111
112
113
114
115
116
117
118
119
120
121
122
123
124
125
126
127
128
129
130
131
132
133
134
135
136
137
138
139
140
141
142
143
144
145
146
147
148
149
150
151
152
153
154
155
156
157
158
159
160
161
162
163
164
165
166
167
168
169
170
171
172
173
174
175
176
177
178
179
180
181
182
183
184
185
186
187
188
189
190
191
192
193
194
195
196
197
198
199
200
201
202
203
204
205
206
207
208
209
210
211
212
213
214
215
216
217
218
219
220
221
222
223
224
225
226
227
228
229
230
231
232
233
234
235
236

