%nproc=8
%mem=1000MB
# rb3lyp/6-311+g** NMR geom=connectivity

Title

0 1
C    -4.0500558   -0.5771862    0.8136712
H    -5.0263804   -1.0082727    1.0024760
C    -3.9381552    0.6617804    0.2400876
H    -4.8252424    1.2338890   -0.0111295
C    -2.6768410    1.2433246    0.0057578
C    -1.4974121    0.5051527    0.2848253
C    -1.6508332   -0.7338728    0.9404026
H    -0.7713646   -1.2730967    1.2633753
C    -2.8898548   -1.2624035    1.1994307
H    -2.9683706   -2.2124563    1.7152676
C    -2.5773185    2.5963696   -0.4192930
H    -3.4870728    3.1412239   -0.6474055
C    -1.3741895    3.2147896   -0.4364030
H    -1.2997315    4.2742019   -0.6578144
C    -0.1719488    2.4994090   -0.1734588
C    -0.2043917    1.1018437    0.0192689
C     1.0513491    3.2042560   -0.0676222
H     1.0427344    4.2819499   -0.1896997
C     2.1942091    2.5487446    0.2579577
H     3.1168527    3.0912848    0.4334727
C     2.2216473    1.1336562    0.2934990
C     1.0486931    0.3945528    0.0302412
C     3.4483363    0.4614633    0.5573939
H     4.3095794    1.0606054    0.8334846
C     3.5427346   -0.8855926    0.4749463
H     4.4731467   -1.3939704    0.7038822
C     2.4490052   -1.6474447   -0.0196319
C     1.2150704   -1.0057258   -0.3013573
C     0.2531113   -1.7434440   -1.0216591
H    -0.6541356   -1.2535051   -1.3462847
C     0.4494193   -3.0628597   -1.3413779
H    -0.3083162   -3.5944309   -1.9054060
C     1.6251726   -3.7207967   -0.9552541
H     1.7670048   -4.7687404   -1.1927019
C     2.6109872   -3.0144177   -0.3183050
H     3.5525612   -3.4902813   -0.0646367
Bq        -4.1316261329     1.1434673047     0.0101180100
Bq        -4.1315406668     1.1884930011    -0.0116231805
Bq        -4.1314552006     1.2335186974    -0.0333643710
Bq        -4.1313697345     1.2785443937    -0.0551055615
Bq        -4.1312842683     1.3235700901    -0.0768467520
Bq        -4.1311988022     1.3685957864    -0.0985879426
Bq        -4.1311133361     1.4136214827    -0.1203291331
Bq        -4.1310278699     1.4586471791    -0.1420703236
Bq        -4.1309424038     1.5036728754    -0.1638115141
Bq        -4.1308569377     1.5486985717    -0.1855527046
Bq        -4.1307714715     1.5937242681    -0.2072938951
Bq        -4.1306860054     1.6387499644    -0.2290350857
Bq        -4.1306005393     1.6837756607    -0.2507762762
Bq        -4.1305150731     1.7288013571    -0.2725174667
Bq        -4.1304296070     1.7738270534    -0.2942586572
Bq        -4.1303441408     1.8188527497    -0.3159998477
Bq        -4.1302586747     1.8638784461    -0.3377410382
Bq        -4.1301732086     1.9089041424    -0.3594822288
Bq        -4.1300877424     1.9539298388    -0.3812234193
Bq        -4.1300022763     1.9989555351    -0.4029646098
Bq        -4.1299168102     2.0439812314    -0.4247058003
Bq        -4.1298313440     2.0890069278    -0.4464469908
Bq        -4.1297458779     2.1340326241    -0.4681881813
Bq        -4.1296604117     2.1790583204    -0.4899293718
Bq        -4.1295749456     2.2240840168    -0.5116705624
Bq        -4.0881219457    -2.2784856168     1.6626450412
Bq        -4.0880364795    -2.2334599204     1.6409038507
Bq        -4.0879510134    -2.1884342241     1.6191626602
Bq        -4.0878655473    -2.1434085278     1.5974214697
Bq        -4.0877800811    -2.0983828314     1.5756802792
Bq        -4.0876946150    -2.0533571351     1.5539390886
Bq        -4.0876091488    -2.0083314388     1.5321978981
Bq        -4.0875236827    -1.9633057424     1.5104567076
Bq        -4.0874382166    -1.9182800461     1.4887155171
Bq        -4.0873527504    -1.8732543497     1.4669743266
Bq        -4.0872672843    -1.8282286534     1.4452331361
Bq        -4.0871818182    -1.7832029571     1.4234919456
Bq        -4.0870963520    -1.7381772607     1.4017507550
Bq        -4.0870108859    -1.6931515644     1.3800095645
Bq        -4.0869254197    -1.6481258681     1.3582683740
Bq        -4.0868399536    -1.6031001717     1.3365271835
Bq        -4.0867544875    -1.5580744754     1.3147859930
Bq        -4.0866690213    -1.5130487791     1.2930448025
Bq        -4.0865835552    -1.4680230827     1.2713036119
Bq        -4.0864980891    -1.4229973864     1.2495624214
Bq        -4.0864126229    -1.3779716901     1.2278212309
Bq        -4.0863271568    -1.3329459937     1.2060800404
Bq        -4.0862416906    -1.2879202974     1.1843388499
Bq        -4.0861562245    -1.2428946011     1.1625976594
Bq        -4.0860707584    -1.1978689047     1.1408564688
Bq        -4.0859852922    -1.1528432084     1.1191152783
Bq        -4.0858998261    -1.1078175120     1.0973740878
Bq        -4.0858143600    -1.0627918157     1.0756328973
Bq        -4.0857288938    -1.0177661194     1.0538917068
Bq        -4.0856434277    -0.9727404230     1.0321505163
Bq        -4.0855579615    -0.9277147267     1.0104093257
Bq        -4.0854724954    -0.8826890304     0.9886681352
Bq        -4.0853870293    -0.8376633340     0.9669269447
Bq        -4.0853015631    -0.7926376377     0.9451857542
Bq        -4.0852160970    -0.7476119414     0.9234445637
Bq        -4.0851306309    -0.7025862450     0.9017033732
Bq        -4.0850451647    -0.6575605487     0.8799621826
Bq        -4.0849596986    -0.6125348524     0.8582209921
Bq        -4.0848742324    -0.5675091560     0.8364798016
Bq        -4.0847887663    -0.5224834597     0.8147386111
Bq        -4.0847033002    -0.4774577634     0.7929974206
Bq        -4.0846178340    -0.4324320670     0.7712562301
Bq        -4.0845323679    -0.3874063707     0.7495150395
Bq        -4.0844469018    -0.3423806743     0.7277738490
Bq        -4.0843614356    -0.2973549780     0.7060326585
Bq        -4.0842759695    -0.2523292817     0.6842914680
Bq        -4.0841905033    -0.2073035853     0.6625502775
Bq        -4.0841050372    -0.1622778890     0.6408090870
Bq        -4.0840195711    -0.1172521927     0.6190678965
Bq        -4.0839341049    -0.0722264963     0.5973267059
Bq        -4.0838486388    -0.0272008000     0.5755855154
Bq        -4.0837631727     0.0178248963     0.5538443249
Bq        -4.0836777065     0.0628505927     0.5321031344
Bq        -4.0835922404     0.1078762890     0.5103619439
Bq        -4.0835067742     0.1529019853     0.4886207534
Bq        -4.0834213081     0.1979276817     0.4668795628
Bq        -4.0833358420     0.2429533780     0.4451383723
Bq        -4.0832503758     0.2879790743     0.4233971818
Bq        -4.0831649097     0.3330047707     0.4016559913
Bq        -4.0830794436     0.3780304670     0.3799148008
Bq        -4.0829939774     0.4230561634     0.3581736103
Bq        -4.0829085113     0.4680818597     0.3364324197
Bq        -4.0828230452     0.5131075560     0.3146912292
Bq        -4.0827375790     0.5581332524     0.2929500387
Bq        -4.0826521129     0.6031589487     0.2712088482
Bq        -4.0825666467     0.6481846450     0.2494676577
Bq        -4.0824811806     0.6932103414     0.2277264672
Bq        -4.0823957145     0.7382360377     0.2059852766
Bq        -4.0823102483     0.7832617340     0.1842440861
Bq        -4.0822247822     0.8282874304     0.1625028956
Bq        -4.0821393161     0.8733131267     0.1407617051
Bq        -4.0820538499     0.9183388230     0.1190205146
Bq        -4.0819683838     0.9633645194     0.0972793241
Bq        -4.0818829176     1.0083902157     0.0755381335
Bq        -4.0817974515     1.0534159120     0.0537969430
Bq        -4.0817119854     1.0984416084     0.0320557525
Bq        -4.0816265192     1.1434673047     0.0103145620
Bq        -4.0815410531     1.1884930011    -0.0114266285
Bq        -4.0814555870     1.2335186974    -0.0331678190
Bq        -4.0813701208     1.2785443937    -0.0549090096
Bq        -4.0812846547     1.3235700901    -0.0766502001
Bq        -4.0811991885     1.3685957864    -0.0983913906
Bq        -4.0811137224     1.4136214827    -0.1201325811
Bq        -4.0810282563     1.4586471791    -0.1418737716
Bq        -4.0809427901     1.5036728754    -0.1636149621
Bq        -4.0808573240     1.5486985717    -0.1853561527
Bq        -4.0807718579     1.5937242681    -0.2070973432
Bq        -4.0806863917     1.6387499644    -0.2288385337
Bq        -4.0806009256     1.6837756607    -0.2505797242
Bq        -4.0805154594     1.7288013571    -0.2723209147
Bq        -4.0804299933     1.7738270534    -0.2940621052
Bq        -4.0803445272     1.8188527497    -0.3158032957
Bq        -4.0802590610     1.8638784461    -0.3375444863
Bq        -4.0801735949     1.9089041424    -0.3592856768
Bq        -4.0800881288     1.9539298388    -0.3810268673
Bq        -4.0800026626     1.9989555351    -0.4027680578
Bq        -4.0799171965     2.0439812314    -0.4245092483
Bq        -4.0798317303     2.0890069278    -0.4462504388
Bq        -4.0797462642     2.1340326241    -0.4679916294
Bq        -4.0796607981     2.1790583204    -0.4897328199
Bq        -4.0795753319     2.2240840168    -0.5114740104
Bq        -4.0381223320    -2.2784856168     1.6628415932
Bq        -4.0380368659    -2.2334599204     1.6411004027
Bq        -4.0379513997    -2.1884342241     1.6193592122
Bq        -4.0378659336    -2.1434085278     1.5976180217
Bq        -4.0377804674    -2.0983828314     1.5758768311
Bq        -4.0376950013    -2.0533571351     1.5541356406
Bq        -4.0376095352    -2.0083314388     1.5323944501
Bq        -4.0375240690    -1.9633057424     1.5106532596
Bq        -4.0374386029    -1.9182800461     1.4889120691
Bq        -4.0373531368    -1.8732543497     1.4671708786
Bq        -4.0372676706    -1.8282286534     1.4454296880
Bq        -4.0371822045    -1.7832029571     1.4236884975
Bq        -4.0370967383    -1.7381772607     1.4019473070
Bq        -4.0370112722    -1.6931515644     1.3802061165
Bq        -4.0369258061    -1.6481258681     1.3584649260
Bq        -4.0368403399    -1.6031001717     1.3367237355
Bq        -4.0367548738    -1.5580744754     1.3149825449
Bq        -4.0366694077    -1.5130487791     1.2932413544
Bq        -4.0365839415    -1.4680230827     1.2715001639
Bq        -4.0364984754    -1.4229973864     1.2497589734
Bq        -4.0364130092    -1.3779716901     1.2280177829
Bq        -4.0363275431    -1.3329459937     1.2062765924
Bq        -4.0362420770    -1.2879202974     1.1845354018
Bq        -4.0361566108    -1.2428946011     1.1627942113
Bq        -4.0360711447    -1.1978689047     1.1410530208
Bq        -4.0359856786    -1.1528432084     1.1193118303
Bq        -4.0359002124    -1.1078175120     1.0975706398
Bq        -4.0358147463    -1.0627918157     1.0758294493
Bq        -4.0357292801    -1.0177661194     1.0540882587
Bq        -4.0356438140    -0.9727404230     1.0323470682
Bq        -4.0355583479    -0.9277147267     1.0106058777
Bq        -4.0354728817    -0.8826890304     0.9888646872
Bq        -4.0353874156    -0.8376633340     0.9671234967
Bq        -4.0353019495    -0.7926376377     0.9453823062
Bq        -4.0352164833    -0.7476119414     0.9236411156
Bq        -4.0351310172    -0.7025862450     0.9018999251
Bq        -4.0350455510    -0.6575605487     0.8801587346
Bq        -4.0349600849    -0.6125348524     0.8584175441
Bq        -4.0348746188    -0.5675091560     0.8366763536
Bq        -4.0347891526    -0.5224834597     0.8149351631
Bq        -4.0347036865    -0.4774577634     0.7931939726
Bq        -4.0346182204    -0.4324320670     0.7714527820
Bq        -4.0345327542    -0.3874063707     0.7497115915
Bq        -4.0344472881    -0.3423806743     0.7279704010
Bq        -4.0343618220    -0.2973549780     0.7062292105
Bq        -4.0342763558    -0.2523292817     0.6844880200
Bq        -4.0341908897    -0.2073035853     0.6627468295
Bq        -4.0341054235    -0.1622778890     0.6410056389
Bq        -4.0340199574    -0.1172521927     0.6192644484
Bq        -4.0339344913    -0.0722264963     0.5975232579
Bq        -4.0338490251    -0.0272008000     0.5757820674
Bq        -4.0337635590     0.0178248963     0.5540408769
Bq        -4.0336780929     0.0628505927     0.5322996864
Bq        -4.0335926267     0.1078762890     0.5105584958
Bq        -4.0335071606     0.1529019853     0.4888173053
Bq        -4.0334216944     0.1979276817     0.4670761148
Bq        -4.0333362283     0.2429533780     0.4453349243
Bq        -4.0332507622     0.2879790743     0.4235937338
Bq        -4.0331652960     0.3330047707     0.4018525433
Bq        -4.0330798299     0.3780304670     0.3801113527
Bq        -4.0329943638     0.4230561634     0.3583701622
Bq        -4.0329088976     0.4680818597     0.3366289717
Bq        -4.0328234315     0.5131075560     0.3148877812
Bq        -4.0327379653     0.5581332524     0.2931465907
Bq        -4.0326524992     0.6031589487     0.2714054002
Bq        -4.0325670331     0.6481846450     0.2496642096
Bq        -4.0324815669     0.6932103414     0.2279230191
Bq        -4.0323961008     0.7382360377     0.2061818286
Bq        -4.0323106347     0.7832617340     0.1844406381
Bq        -4.0322251685     0.8282874304     0.1626994476
Bq        -4.0321397024     0.8733131267     0.1409582571
Bq        -4.0320542362     0.9183388230     0.1192170665
Bq        -4.0319687701     0.9633645194     0.0974758760
Bq        -4.0318833040     1.0083902157     0.0757346855

1
2
3
4
5
6
7
8
9
10
11
12
13
14
15
16
17
18
19
20
21
22
23
24
25
26
27
28
29
30
31
32
33
34
35
36
37
38
39
40
41
42
43
44
45
46
47
48
49
50
51
52
53
54
55
56
57
58
59
60
61
62
63
64
65
66
67
68
69
70
71
72
73
74
75
76
77
78
79
80
81
82
83
84
85
86
87
88
89
90
91
92
93
94
95
96
97
98
99
100
101
102
103
104
105
106
107
108
109
110
111
112
113
114
115
116
117
118
119
120
121
122
123
124
125
126
127
128
129
130
131
132
133
134
135
136
137
138
139
140
141
142
143
144
145
146
147
148
149
150
151
152
153
154
155
156
157
158
159
160
161
162
163
164
165
166
167
168
169
170
171
172
173
174
175
176
177
178
179
180
181
182
183
184
185
186
187
188
189
190
191
192
193
194
195
196
197
198
199
200
201
202
203
204
205
206
207
208
209
210
211
212
213
214
215
216
217
218
219
220
221
222
223
224
225
226
227
228
229
230
231
232
233
234
235
236

