%nproc=8
%mem=1000MB
# rb3lyp/6-311+g** NMR geom=connectivity

Title

0 1
C    -4.0500558   -0.5771862    0.8136712
H    -5.0263804   -1.0082727    1.0024760
C    -3.9381552    0.6617804    0.2400876
H    -4.8252424    1.2338890   -0.0111295
C    -2.6768410    1.2433246    0.0057578
C    -1.4974121    0.5051527    0.2848253
C    -1.6508332   -0.7338728    0.9404026
H    -0.7713646   -1.2730967    1.2633753
C    -2.8898548   -1.2624035    1.1994307
H    -2.9683706   -2.2124563    1.7152676
C    -2.5773185    2.5963696   -0.4192930
H    -3.4870728    3.1412239   -0.6474055
C    -1.3741895    3.2147896   -0.4364030
H    -1.2997315    4.2742019   -0.6578144
C    -0.1719488    2.4994090   -0.1734588
C    -0.2043917    1.1018437    0.0192689
C     1.0513491    3.2042560   -0.0676222
H     1.0427344    4.2819499   -0.1896997
C     2.1942091    2.5487446    0.2579577
H     3.1168527    3.0912848    0.4334727
C     2.2216473    1.1336562    0.2934990
C     1.0486931    0.3945528    0.0302412
C     3.4483363    0.4614633    0.5573939
H     4.3095794    1.0606054    0.8334846
C     3.5427346   -0.8855926    0.4749463
H     4.4731467   -1.3939704    0.7038822
C     2.4490052   -1.6474447   -0.0196319
C     1.2150704   -1.0057258   -0.3013573
C     0.2531113   -1.7434440   -1.0216591
H    -0.6541356   -1.2535051   -1.3462847
C     0.4494193   -3.0628597   -1.3413779
H    -0.3083162   -3.5944309   -1.9054060
C     1.6251726   -3.7207967   -0.9552541
H     1.7670048   -4.7687404   -1.1927019
C     2.6109872   -3.0144177   -0.3183050
H     3.5525612   -3.4902813   -0.0646367
Bq        -3.7427926342     4.0897643346    -0.7772111776
Bq        -3.7423061571     4.1382342506    -0.7894761923
Bq        -3.7418196800     4.1867041665    -0.8017412071
Bq        -3.7413332029     4.2351740825    -0.8140062218
Bq        -3.7408467258     4.2836439985    -0.8262712365
Bq        -3.7395337211    -0.5633475985     0.4022118668
Bq        -3.7390472440    -0.5148776825     0.3899468521
Bq        -3.7385607669    -0.4664077665     0.3776818374
Bq        -3.7380742898    -0.4179378506     0.3654168227
Bq        -3.7375878127    -0.3694679346     0.3531518080
Bq        -3.7371013355    -0.3209980186     0.3408867932
Bq        -3.7366148584    -0.2725281027     0.3286217785
Bq        -3.7361283813    -0.2240581867     0.3163567638
Bq        -3.7356419042    -0.1755882707     0.3040917491
Bq        -3.7351554271    -0.1271183548     0.2918267344
Bq        -3.7346689500    -0.0786484388     0.2795617197
Bq        -3.7341824729    -0.0301785228     0.2672967050
Bq        -3.7336959958     0.0182913932     0.2550316902
Bq        -3.7332095186     0.0667613091     0.2427666755
Bq        -3.7327230415     0.1152312251     0.2305016608
Bq        -3.7322365644     0.1637011411     0.2182366461
Bq        -3.7317500873     0.2121710570     0.2059716314
Bq        -3.7312636102     0.2606409730     0.1937066167
Bq        -3.7307771331     0.3091108890     0.1814416020
Bq        -3.7302906560     0.3575808049     0.1691765872
Bq        -3.7298041789     0.4060507209     0.1569115725
Bq        -3.7293177017     0.4545206369     0.1446465578
Bq        -3.7288312246     0.5029905529     0.1323815431
Bq        -3.7283447475     0.5514604688     0.1201165284
Bq        -3.7278582704     0.5999303848     0.1078515137
Bq        -3.7273717933     0.6484003008     0.0955864990
Bq        -3.7268853162     0.6968702167     0.0833214843
Bq        -3.7263988391     0.7453401327     0.0710564695
Bq        -3.7259123620     0.7938100487     0.0587914548
Bq        -3.7254258848     0.8422799646     0.0465264401
Bq        -3.7249394077     0.8907498806     0.0342614254
Bq        -3.7244529306     0.9392197966     0.0219964107
Bq        -3.7239664535     0.9876897125     0.0097313960
Bq        -3.7234799764     1.0361596285    -0.0025336187
Bq        -3.7229934993     1.0846295445    -0.0147986335
Bq        -3.7225070222     1.1330994605    -0.0270636482
Bq        -3.7220205451     1.1815693764    -0.0393286629
Bq        -3.7215340679     1.2300392924    -0.0515936776
Bq        -3.7210475908     1.2785092084    -0.0638586923
Bq        -3.7205611137     1.3269791243    -0.0761237070
Bq        -3.7200746366     1.3754490403    -0.0883887217
Bq        -3.7195881595     1.4239189563    -0.1006537365
Bq        -3.7191016824     1.4723888722    -0.1129187512
Bq        -3.7186152053     1.5208587882    -0.1251837659
Bq        -3.7181287282     1.5693287042    -0.1374487806
Bq        -3.7176422511     1.6177986202    -0.1497137953
Bq        -3.7171557739     1.6662685361    -0.1619788100
Bq        -3.7166692968     1.7147384521    -0.1742438247
Bq        -3.7161828197     1.7632083681    -0.1865088394
Bq        -3.7156963426     1.8116782840    -0.1987738542
Bq        -3.7152098655     1.8601482000    -0.2110388689
Bq        -3.7147233884     1.9086181160    -0.2233038836
Bq        -3.7142369113     1.9570880319    -0.2355688983
Bq        -3.7137504342     2.0055579479    -0.2478339130
Bq        -3.7132639570     2.0540278639    -0.2600989277
Bq        -3.7127774799     2.1024977798    -0.2723639424
Bq        -3.7122910028     2.1509676958    -0.2846289572
Bq        -3.7118045257     2.1994376118    -0.2968939719
Bq        -3.7113180486     2.2479075278    -0.3091589866
Bq        -3.7108315715     2.2963774437    -0.3214240013
Bq        -3.7103450944     2.3448473597    -0.3336890160
Bq        -3.7098586173     2.3933172757    -0.3459540307
Bq        -3.7093721401     2.4417871916    -0.3582190454
Bq        -3.7088856630     2.4902571076    -0.3704840602
Bq        -3.7083991859     2.5387270236    -0.3827490749
Bq        -3.7079127088     2.5871969395    -0.3950140896
Bq        -3.7074262317     2.6356668555    -0.4072791043
Bq        -3.7069397546     2.6841367715    -0.4195441190
Bq        -3.7064532775     2.7326066875    -0.4318091337
Bq        -3.7059668004     2.7810766034    -0.4440741484
Bq        -3.7054803232     2.8295465194    -0.4563391631
Bq        -3.7049938461     2.8780164354    -0.4686041779
Bq        -3.7045073690     2.9264863513    -0.4808691926
Bq        -3.7040208919     2.9749562673    -0.4931342073
Bq        -3.7035344148     3.0234261833    -0.5053992220
Bq        -3.7030479377     3.0718960992    -0.5176642367
Bq        -3.7025614606     3.1203660152    -0.5299292514
Bq        -3.7020749835     3.1688359312    -0.5421942661
Bq        -3.7015885063     3.2173058471    -0.5544592809
Bq        -3.7011020292     3.2657757631    -0.5667242956
Bq        -3.7006155521     3.3142456791    -0.5789893103
Bq        -3.7001290750     3.3627155951    -0.5912543250
Bq        -3.6996425979     3.4111855110    -0.6035193397
Bq        -3.6991561208     3.4596554270    -0.6157843544
Bq        -3.6986696437     3.5081253430    -0.6280493691
Bq        -3.6981831666     3.5565952589    -0.6403143838
Bq        -3.6976966895     3.6050651749    -0.6525793986
Bq        -3.6972102123     3.6535350909    -0.6648444133
Bq        -3.6967237352     3.7020050068    -0.6771094280
Bq        -3.6962372581     3.7504749228    -0.6893744427
Bq        -3.6957507810     3.7989448388    -0.7016394574
Bq        -3.6952643039     3.8474147548    -0.7139044721
Bq        -3.6947778268     3.8958846707    -0.7261694868
Bq        -3.6942913497     3.9443545867    -0.7384345016
Bq        -3.6938048726     3.9928245027    -0.7506995163
Bq        -3.6933183954     4.0412944186    -0.7629645310
Bq        -3.6928319183     4.0897643346    -0.7752295457
Bq        -3.6923454412     4.1382342506    -0.7874945604
Bq        -3.6918589641     4.1867041665    -0.7997595751
Bq        -3.6913724870     4.2351740825    -0.8120245898
Bq        -3.6908860099     4.2836439985    -0.8242896046
Bq        -3.6895730052    -0.5633475985     0.4041934987
Bq        -3.6890865281    -0.5148776825     0.3919284840
Bq        -3.6886000510    -0.4664077665     0.3796634693
Bq        -3.6881135738    -0.4179378506     0.3673984546
Bq        -3.6876270967    -0.3694679346     0.3551334399
Bq        -3.6871406196    -0.3209980186     0.3428684252
Bq        -3.6866541425    -0.2725281027     0.3306034105
Bq        -3.6861676654    -0.2240581867     0.3183383957
Bq        -3.6856811883    -0.1755882707     0.3060733810
Bq        -3.6851947112    -0.1271183548     0.2938083663
Bq        -3.6847082341    -0.0786484388     0.2815433516
Bq        -3.6842217570    -0.0301785228     0.2692783369
Bq        -3.6837352798     0.0182913932     0.2570133222
Bq        -3.6832488027     0.0667613091     0.2447483075
Bq        -3.6827623256     0.1152312251     0.2324832927
Bq        -3.6822758485     0.1637011411     0.2202182780
Bq        -3.6817893714     0.2121710570     0.2079532633
Bq        -3.6813028943     0.2606409730     0.1956882486
Bq        -3.6808164172     0.3091108890     0.1834232339
Bq        -3.6803299401     0.3575808049     0.1711582192
Bq        -3.6798434629     0.4060507209     0.1588932045
Bq        -3.6793569858     0.4545206369     0.1466281898
Bq        -3.6788705087     0.5029905529     0.1343631750
Bq        -3.6783840316     0.5514604688     0.1220981603
Bq        -3.6778975545     0.5999303848     0.1098331456
Bq        -3.6774110774     0.6484003008     0.0975681309
Bq        -3.6769246003     0.6968702167     0.0853031162
Bq        -3.6764381232     0.7453401327     0.0730381015
Bq        -3.6759516460     0.7938100487     0.0607730868
Bq        -3.6754651689     0.8422799646     0.0485080720
Bq        -3.6749786918     0.8907498806     0.0362430573
Bq        -3.6744922147     0.9392197966     0.0239780426
Bq        -3.6740057376     0.9876897125     0.0117130279
Bq        -3.6735192605     1.0361596285    -0.0005519868
Bq        -3.6730327834     1.0846295445    -0.0128170015
Bq        -3.6725463063     1.1330994605    -0.0250820162
Bq        -3.6720598291     1.1815693764    -0.0373470310
Bq        -3.6715733520     1.2300392924    -0.0496120457
Bq        -3.6710868749     1.2785092084    -0.0618770604
Bq        -3.6706003978     1.3269791243    -0.0741420751
Bq        -3.6701139207     1.3754490403    -0.0864070898
Bq        -3.6696274436     1.4239189563    -0.0986721045
Bq        -3.6691409665     1.4723888722    -0.1109371192
Bq        -3.6686544894     1.5208587882    -0.1232021339
Bq        -3.6681680122     1.5693287042    -0.1354671487
Bq        -3.6676815351     1.6177986202    -0.1477321634
Bq        -3.6671950580     1.6662685361    -0.1599971781
Bq        -3.6667085809     1.7147384521    -0.1722621928
Bq        -3.6662221038     1.7632083681    -0.1845272075
Bq        -3.6657356267     1.8116782840    -0.1967922222
Bq        -3.6652491496     1.8601482000    -0.2090572369
Bq        -3.6647626725     1.9086181160    -0.2213222517
Bq        -3.6642761953     1.9570880319    -0.2335872664
Bq        -3.6637897182     2.0055579479    -0.2458522811
Bq        -3.6633032411     2.0540278639    -0.2581172958
Bq        -3.6628167640     2.1024977798    -0.2703823105
Bq        -3.6623302869     2.1509676958    -0.2826473252
Bq        -3.6618438098     2.1994376118    -0.2949123399
Bq        -3.6613573327     2.2479075278    -0.3071773547
Bq        -3.6608708556     2.2963774437    -0.3194423694
Bq        -3.6603843785     2.3448473597    -0.3317073841
Bq        -3.6598979013     2.3933172757    -0.3439723988
Bq        -3.6594114242     2.4417871916    -0.3562374135
Bq        -3.6589249471     2.4902571076    -0.3685024282
Bq        -3.6584384700     2.5387270236    -0.3807674429
Bq        -3.6579519929     2.5871969395    -0.3930324576
Bq        -3.6574655158     2.6356668555    -0.4052974724
Bq        -3.6569790387     2.6841367715    -0.4175624871
Bq        -3.6564925616     2.7326066875    -0.4298275018
Bq        -3.6560060844     2.7810766034    -0.4420925165
Bq        -3.6555196073     2.8295465194    -0.4543575312
Bq        -3.6550331302     2.8780164354    -0.4666225459
Bq        -3.6545466531     2.9264863513    -0.4788875606
Bq        -3.6540601760     2.9749562673    -0.4911525754
Bq        -3.6535736989     3.0234261833    -0.5034175901
Bq        -3.6530872218     3.0718960992    -0.5156826048
Bq        -3.6526007447     3.1203660152    -0.5279476195
Bq        -3.6521142675     3.1688359312    -0.5402126342
Bq        -3.6516277904     3.2173058471    -0.5524776489
Bq        -3.6511413133     3.2657757631    -0.5647426636
Bq        -3.6506548362     3.3142456791    -0.5770076783
Bq        -3.6501683591     3.3627155951    -0.5892726931
Bq        -3.6496818820     3.4111855110    -0.6015377078
Bq        -3.6491954049     3.4596554270    -0.6138027225
Bq        -3.6487089278     3.5081253430    -0.6260677372
Bq        -3.6482224506     3.5565952589    -0.6383327519
Bq        -3.6477359735     3.6050651749    -0.6505977666
Bq        -3.6472494964     3.6535350909    -0.6628627813
Bq        -3.6467630193     3.7020050068    -0.6751277961
Bq        -3.6462765422     3.7504749228    -0.6873928108
Bq        -3.6457900651     3.7989448388    -0.6996578255
Bq        -3.6453035880     3.8474147548    -0.7119228402
Bq        -3.6448171109     3.8958846707    -0.7241878549
Bq        -3.6443306337     3.9443545867    -0.7364528696

1
2
3
4
5
6
7
8
9
10
11
12
13
14
15
16
17
18
19
20
21
22
23
24
25
26
27
28
29
30
31
32
33
34
35
36
37
38
39
40
41
42
43
44
45
46
47
48
49
50
51
52
53
54
55
56
57
58
59
60
61
62
63
64
65
66
67
68
69
70
71
72
73
74
75
76
77
78
79
80
81
82
83
84
85
86
87
88
89
90
91
92
93
94
95
96
97
98
99
100
101
102
103
104
105
106
107
108
109
110
111
112
113
114
115
116
117
118
119
120
121
122
123
124
125
126
127
128
129
130
131
132
133
134
135
136
137
138
139
140
141
142
143
144
145
146
147
148
149
150
151
152
153
154
155
156
157
158
159
160
161
162
163
164
165
166
167
168
169
170
171
172
173
174
175
176
177
178
179
180
181
182
183
184
185
186
187
188
189
190
191
192
193
194
195
196
197
198
199
200
201
202
203
204
205
206
207
208
209
210
211
212
213
214
215
216
217
218
219
220
221
222
223
224
225
226
227
228
229
230
231
232
233
234
235
236

