%nproc=8
%mem=1000MB
# rb3lyp/6-311+g** NMR geom=connectivity

Title

0 1
C    -4.0500558   -0.5771862    0.8136712
H    -5.0263804   -1.0082727    1.0024760
C    -3.9381552    0.6617804    0.2400876
H    -4.8252424    1.2338890   -0.0111295
C    -2.6768410    1.2433246    0.0057578
C    -1.4974121    0.5051527    0.2848253
C    -1.6508332   -0.7338728    0.9404026
H    -0.7713646   -1.2730967    1.2633753
C    -2.8898548   -1.2624035    1.1994307
H    -2.9683706   -2.2124563    1.7152676
C    -2.5773185    2.5963696   -0.4192930
H    -3.4870728    3.1412239   -0.6474055
C    -1.3741895    3.2147896   -0.4364030
H    -1.2997315    4.2742019   -0.6578144
C    -0.1719488    2.4994090   -0.1734588
C    -0.2043917    1.1018437    0.0192689
C     1.0513491    3.2042560   -0.0676222
H     1.0427344    4.2819499   -0.1896997
C     2.1942091    2.5487446    0.2579577
H     3.1168527    3.0912848    0.4334727
C     2.2216473    1.1336562    0.2934990
C     1.0486931    0.3945528    0.0302412
C     3.4483363    0.4614633    0.5573939
H     4.3095794    1.0606054    0.8334846
C     3.5427346   -0.8855926    0.4749463
H     4.4731467   -1.3939704    0.7038822
C     2.4490052   -1.6474447   -0.0196319
C     1.2150704   -1.0057258   -0.3013573
C     0.2531113   -1.7434440   -1.0216591
H    -0.6541356   -1.2535051   -1.3462847
C     0.4494193   -3.0628597   -1.3413779
H    -0.3083162   -3.5944309   -1.9054060
C     1.6251726   -3.7207967   -0.9552541
H     1.7670048   -4.7687404   -1.1927019
C     2.6109872   -3.0144177   -0.3183050
H     3.5525612   -3.4902813   -0.0646367
Bq         4.1777050694    -2.1388529867     0.3913864115
Bq         4.1758595441    -2.0893616397     0.3982566813
Bq         4.1740140188    -2.0398702926     0.4051269510
Bq         4.1721684936    -1.9903789456     0.4119972208
Bq         4.1703229683    -1.9408875986     0.4188674906
Bq         4.1684774430    -1.8913962516     0.4257377604
Bq         4.1666319178    -1.8419049046     0.4326080302
Bq         4.1647863925    -1.7924135576     0.4394782999
Bq         4.1629408672    -1.7429222105     0.4463485697
Bq         4.1610953420    -1.6934308635     0.4532188395
Bq         4.1592498167    -1.6439395165     0.4600891093
Bq         4.1574042914    -1.5944481695     0.4669593791
Bq         4.1555587662    -1.5449568225     0.4738296488
Bq         4.1537132409    -1.4954654754     0.4806999186
Bq         4.1518677156    -1.4459741284     0.4875701884
Bq         4.1500221904    -1.3964827814     0.4944404582
Bq         4.1481766651    -1.3469914344     0.5013107279
Bq         4.1463311398    -1.2975000874     0.5081809977
Bq         4.1444856145    -1.2480087404     0.5150512675
Bq         4.1426400893    -1.1985173933     0.5219215373
Bq         4.1407945640    -1.1490260463     0.5287918071
Bq         4.1389490387    -1.0995346993     0.5356620768
Bq         4.1371035135    -1.0500433523     0.5425323466
Bq         4.1352579882    -1.0005520053     0.5494026164
Bq         4.1334124629    -0.9510606583     0.5562728862
Bq         4.1315669377    -0.9015693112     0.5631431560
Bq         4.1297214124    -0.8520779642     0.5700134257
Bq         4.1278758871    -0.8025866172     0.5768836955
Bq         4.1260303619    -0.7530952702     0.5837539653
Bq         4.1241848366    -0.7036039232     0.5906242351
Bq         4.1223393113    -0.6541125761     0.5974945049
Bq         4.1204937861    -0.6046212291     0.6043647746
Bq         4.1186482608    -0.5551298821     0.6112350444
Bq         4.1168027355    -0.5056385351     0.6181053142
Bq         4.1149572103    -0.4561471881     0.6249755840
Bq         4.1131116850    -0.4066558411     0.6318458538
Bq         4.1112661597    -0.3571644940     0.6387161235
Bq         4.1094206345    -0.3076731470     0.6455863933
Bq         4.1075751092    -0.2581818000     0.6524566631
Bq         4.1057295839    -0.2086904530     0.6593269329
Bq         4.1038840587    -0.1591991060     0.6661972027
Bq         4.1020385334    -0.1097077589     0.6730674724
Bq         4.1001930081    -0.0602164119     0.6799377422
Bq         4.0983474829    -0.0107250649     0.6868080120
Bq         4.0965019576     0.0387662821     0.6936782818
Bq         4.0946564323     0.0882576291     0.7005485516
Bq         4.0928109071     0.1377489761     0.7074188213
Bq         4.0909653818     0.1872403232     0.7142890911
Bq         4.0891198565     0.2367316702     0.7211593609
Bq         4.0872743312     0.2862230172     0.7280296307
Bq         4.0854288060     0.3357143642     0.7348999004
Bq         4.0835832807     0.3852057112     0.7417701702
Bq         4.0817377554     0.4346970583     0.7486404400
Bq         4.0798922302     0.4841884053     0.7555107098
Bq         4.0780467049     0.5336797523     0.7623809796
Bq         4.0762011796     0.5831710993     0.7692512493
Bq         4.0743556544     0.6326624463     0.7761215191
Bq         4.0725101291     0.6821537933     0.7829917889
Bq         4.0706646038     0.7316451404     0.7898620587
Bq         4.0688190786     0.7811364874     0.7967323285
Bq         4.0669735533     0.8306278344     0.8036025982
Bq         4.0651280280     0.8801191814     0.8104728680
Bq         4.0632825028     0.9296105284     0.8173431378
Bq         4.0614369775     0.9791018754     0.8242134076
Bq         4.0595914522     1.0285932225     0.8310836774
Bq         4.0577459270     1.0780845695     0.8379539471
Bq         4.0559004017     1.1275759165     0.8448242169
Bq         4.0540548764     1.1770672635     0.8516944867
Bq         4.0522093512     1.2265586105     0.8585647565
Bq         4.0503638259     1.2760499576     0.8654350263
Bq         4.0485183006     1.3255413046     0.8723052960
Bq         4.0466727754     1.3750326516     0.8791755658
Bq         4.0448272501     1.4245239986     0.8860458356
Bq         4.0429817248     1.4740153456     0.8929161054
Bq         4.0411361996     1.5235066926     0.8997863752
Bq         4.0392906743     1.5729980397     0.9066566449
Bq         4.0374451490     1.6224893867     0.9135269147
Bq         4.0355996238     1.6719807337     0.9203971845
Bq         4.0337540985     1.7214720807     0.9272674543
Bq         4.0319085732     1.7709634277     0.9341377241
Bq         4.0300630480     1.8204547748     0.9410079938
Bq         4.0282175227     1.8699461218     0.9478782636
Bq         4.0263719974     1.9194374688     0.9547485334
Bq         4.0245264721     1.9689288158     0.9616188032
Bq         4.0226809469     2.0184201628     0.9684890730
Bq         4.0208354216     2.0679115098     0.9753593427
Bq         4.0189898963     2.1174028569     0.9822296125
Bq         4.0171443711     2.1668942039     0.9890998823
Bq         4.0152988458     2.2163855509     0.9959701521
Bq         4.2481394976    -2.7327491509     0.3219145650
Bq         4.2462939723    -2.6832578039     0.3287848348
Bq         4.2444484471    -2.6337664569     0.3356551046
Bq         4.2426029218    -2.5842751098     0.3425253744
Bq         4.2407573965    -2.5347837628     0.3493956441
Bq         4.2389118713    -2.4852924158     0.3562659139
Bq         4.2370663460    -2.4358010688     0.3631361837
Bq         4.2352208207    -2.3863097218     0.3700064535
Bq         4.2333752955    -2.3368183748     0.3768767233
Bq         4.2315297702    -2.2873270277     0.3837469930
Bq         4.2296842449    -2.2378356807     0.3906172628
Bq         4.2278387197    -2.1883443337     0.3974875326
Bq         4.2259931944    -2.1388529867     0.4043578024
Bq         4.2241476691    -2.0893616397     0.4112280722
Bq         4.2223021439    -2.0398702926     0.4180983419
Bq         4.2204566186    -1.9903789456     0.4249686117
Bq         4.2186110933    -1.9408875986     0.4318388815
Bq         4.2167655681    -1.8913962516     0.4387091513
Bq         4.2149200428    -1.8419049046     0.4455794210
Bq         4.2130745175    -1.7924135576     0.4524496908
Bq         4.2112289922    -1.7429222105     0.4593199606
Bq         4.2093834670    -1.6934308635     0.4661902304
Bq         4.2075379417    -1.6439395165     0.4730605002
Bq         4.2056924164    -1.5944481695     0.4799307699
Bq         4.2038468912    -1.5449568225     0.4868010397
Bq         4.2020013659    -1.4954654754     0.4936713095
Bq         4.2001558406    -1.4459741284     0.5005415793
Bq         4.1983103154    -1.3964827814     0.5074118491
Bq         4.1964647901    -1.3469914344     0.5142821188
Bq         4.1946192648    -1.2975000874     0.5211523886
Bq         4.1927737396    -1.2480087404     0.5280226584
Bq         4.1909282143    -1.1985173933     0.5348929282
Bq         4.1890826890    -1.1490260463     0.5417631980
Bq         4.1872371638    -1.0995346993     0.5486334677
Bq         4.1853916385    -1.0500433523     0.5555037375
Bq         4.1835461132    -1.0005520053     0.5623740073
Bq         4.1817005880    -0.9510606583     0.5692442771
Bq         4.1798550627    -0.9015693112     0.5761145469
Bq         4.1780095374    -0.8520779642     0.5829848166
Bq         4.1761640122    -0.8025866172     0.5898550864
Bq         4.1743184869    -0.7530952702     0.5967253562
Bq         4.1724729616    -0.7036039232     0.6035956260
Bq         4.1706274364    -0.6541125761     0.6104658958
Bq         4.1687819111    -0.6046212291     0.6173361655
Bq         4.1669363858    -0.5551298821     0.6242064353
Bq         4.1650908606    -0.5056385351     0.6310767051
Bq         4.1632453353    -0.4561471881     0.6379469749
Bq         4.1613998100    -0.4066558411     0.6448172447
Bq         4.1595542848    -0.3571644940     0.6516875144
Bq         4.1577087595    -0.3076731470     0.6585577842
Bq         4.1558632342    -0.2581818000     0.6654280540
Bq         4.1540177089    -0.2086904530     0.6722983238
Bq         4.1521721837    -0.1591991060     0.6791685935
Bq         4.1503266584    -0.1097077589     0.6860388633
Bq         4.1484811331    -0.0602164119     0.6929091331
Bq         4.1466356079    -0.0107250649     0.6997794029
Bq         4.1447900826     0.0387662821     0.7066496727
Bq         4.1429445573     0.0882576291     0.7135199424
Bq         4.1410990321     0.1377489761     0.7203902122
Bq         4.1392535068     0.1872403232     0.7272604820
Bq         4.1374079815     0.2367316702     0.7341307518
Bq         4.1355624563     0.2862230172     0.7410010216
Bq         4.1337169310     0.3357143642     0.7478712913
Bq         4.1318714057     0.3852057112     0.7547415611
Bq         4.1300258805     0.4346970583     0.7616118309
Bq         4.1281803552     0.4841884053     0.7684821007
Bq         4.1263348299     0.5336797523     0.7753523705
Bq         4.1244893047     0.5831710993     0.7822226402
Bq         4.1226437794     0.6326624463     0.7890929100
Bq         4.1207982541     0.6821537933     0.7959631798
Bq         4.1189527289     0.7316451404     0.8028334496
Bq         4.1171072036     0.7811364874     0.8097037194
Bq         4.1152616783     0.8306278344     0.8165739891
Bq         4.1134161531     0.8801191814     0.8234442589
Bq         4.1115706278     0.9296105284     0.8303145287
Bq         4.1097251025     0.9791018754     0.8371847985
Bq         4.1078795773     1.0285932225     0.8440550683
Bq         4.1060340520     1.0780845695     0.8509253380
Bq         4.1041885267     1.1275759165     0.8577956078
Bq         4.1023430015     1.1770672635     0.8646658776
Bq         4.1004974762     1.2265586105     0.8715361474
Bq         4.0986519509     1.2760499576     0.8784064172
Bq         4.0968064257     1.3255413046     0.8852766869
Bq         4.0949609004     1.3750326516     0.8921469567
Bq         4.0931153751     1.4245239986     0.8990172265
Bq         4.0912698498     1.4740153456     0.9058874963
Bq         4.0894243246     1.5235066926     0.9127577661
Bq         4.0875787993     1.5729980397     0.9196280358
Bq         4.0857332740     1.6224893867     0.9264983056
Bq         4.0838877488     1.6719807337     0.9333685754
Bq         4.0820422235     1.7214720807     0.9402388452
Bq         4.0801966982     1.7709634277     0.9471091149
Bq         4.0783511730     1.8204547748     0.9539793847
Bq         4.0765056477     1.8699461218     0.9608496545
Bq         4.0746601224     1.9194374688     0.9677199243
Bq         4.0728145972     1.9689288158     0.9745901941
Bq         4.0709690719     2.0184201628     0.9814604638
Bq         4.0691235466     2.0679115098     0.9883307336
Bq         4.0672780214     2.1174028569     0.9952010034
Bq         4.0654324961     2.1668942039     1.0020712732
Bq         4.0635869708     2.2163855509     1.0089415430
Bq         4.2964276226    -2.7327491509     0.3348859559
Bq         4.2945820974    -2.6832578039     0.3417562257
Bq         4.2927365721    -2.6337664569     0.3486264955
Bq         4.2908910468    -2.5842751098     0.3554967653
Bq         4.2890455216    -2.5347837628     0.3623670350
Bq         4.2871999963    -2.4852924158     0.3692373048
Bq         4.2853544710    -2.4358010688     0.3761075746
Bq         4.2835089458    -2.3863097218     0.3829778444
Bq         4.2816634205    -2.3368183748     0.3898481141
Bq         4.2798178952    -2.2873270277     0.3967183839

1
2
3
4
5
6
7
8
9
10
11
12
13
14
15
16
17
18
19
20
21
22
23
24
25
26
27
28
29
30
31
32
33
34
35
36
37
38
39
40
41
42
43
44
45
46
47
48
49
50
51
52
53
54
55
56
57
58
59
60
61
62
63
64
65
66
67
68
69
70
71
72
73
74
75
76
77
78
79
80
81
82
83
84
85
86
87
88
89
90
91
92
93
94
95
96
97
98
99
100
101
102
103
104
105
106
107
108
109
110
111
112
113
114
115
116
117
118
119
120
121
122
123
124
125
126
127
128
129
130
131
132
133
134
135
136
137
138
139
140
141
142
143
144
145
146
147
148
149
150
151
152
153
154
155
156
157
158
159
160
161
162
163
164
165
166
167
168
169
170
171
172
173
174
175
176
177
178
179
180
181
182
183
184
185
186
187
188
189
190
191
192
193
194
195
196
197
198
199
200
201
202
203
204
205
206
207
208
209
210
211
212
213
214
215
216
217
218
219
220
221
222
223
224
225
226
227
228
229
230
231
232
233
234
235
236

