%nproc=8
%mem=1000MB
# rb3lyp/6-311+g** NMR geom=connectivity

Title

0 1
C    -4.0500558   -0.5771862    0.8136712
H    -5.0263804   -1.0082727    1.0024760
C    -3.9381552    0.6617804    0.2400876
H    -4.8252424    1.2338890   -0.0111295
C    -2.6768410    1.2433246    0.0057578
C    -1.4974121    0.5051527    0.2848253
C    -1.6508332   -0.7338728    0.9404026
H    -0.7713646   -1.2730967    1.2633753
C    -2.8898548   -1.2624035    1.1994307
H    -2.9683706   -2.2124563    1.7152676
C    -2.5773185    2.5963696   -0.4192930
H    -3.4870728    3.1412239   -0.6474055
C    -1.3741895    3.2147896   -0.4364030
H    -1.2997315    4.2742019   -0.6578144
C    -0.1719488    2.4994090   -0.1734588
C    -0.2043917    1.1018437    0.0192689
C     1.0513491    3.2042560   -0.0676222
H     1.0427344    4.2819499   -0.1896997
C     2.1942091    2.5487446    0.2579577
H     3.1168527    3.0912848    0.4334727
C     2.2216473    1.1336562    0.2934990
C     1.0486931    0.3945528    0.0302412
C     3.4483363    0.4614633    0.5573939
H     4.3095794    1.0606054    0.8334846
C     3.5427346   -0.8855926    0.4749463
H     4.4731467   -1.3939704    0.7038822
C     2.4490052   -1.6474447   -0.0196319
C     1.2150704   -1.0057258   -0.3013573
C     0.2531113   -1.7434440   -1.0216591
H    -0.6541356   -1.2535051   -1.3462847
C     0.4494193   -3.0628597   -1.3413779
H    -0.3083162   -3.5944309   -1.9054060
C     1.6251726   -3.7207967   -0.9552541
H     1.7670048   -4.7687404   -1.1927019
C     2.6109872   -3.0144177   -0.3183050
H     3.5525612   -3.4902813   -0.0646367
Bq         1.9718244566     0.0387662821     0.1229370824
Bq         1.9699789313     0.0882576291     0.1298073522
Bq         1.9681334060     0.1377489761     0.1366776220
Bq         1.9662878808     0.1872403232     0.1435478918
Bq         1.9644423555     0.2367316702     0.1504181615
Bq         1.9625968302     0.2862230172     0.1572884313
Bq         1.9607513050     0.3357143642     0.1641587011
Bq         1.9589057797     0.3852057112     0.1710289709
Bq         1.9570602544     0.4346970583     0.1778992407
Bq         1.9552147292     0.4841884053     0.1847695104
Bq         1.9533692039     0.5336797523     0.1916397802
Bq         1.9515236786     0.5831710993     0.1985100500
Bq         1.9496781534     0.6326624463     0.2053803198
Bq         1.9478326281     0.6821537933     0.2122505895
Bq         1.9459871028     0.7316451404     0.2191208593
Bq         1.9441415775     0.7811364874     0.2259911291
Bq         1.9422960523     0.8306278344     0.2328613989
Bq         1.9404505270     0.8801191814     0.2397316687
Bq         1.9386050017     0.9296105284     0.2466019384
Bq         1.9367594765     0.9791018754     0.2534722082
Bq         1.9349139512     1.0285932225     0.2603424780
Bq         1.9330684259     1.0780845695     0.2672127478
Bq         1.9312229007     1.1275759165     0.2740830176
Bq         1.9293773754     1.1770672635     0.2809532873
Bq         1.9275318501     1.2265586105     0.2878235571
Bq         1.9256863249     1.2760499576     0.2946938269
Bq         1.9238407996     1.3255413046     0.3015640967
Bq         1.9219952743     1.3750326516     0.3084343665
Bq         1.9201497491     1.4245239986     0.3153046362
Bq         1.9183042238     1.4740153456     0.3221749060
Bq         1.9164586985     1.5235066926     0.3290451758
Bq         1.9146131733     1.5729980397     0.3359154456
Bq         1.9127676480     1.6224893867     0.3427857154
Bq         1.9109221227     1.6719807337     0.3496559851
Bq         1.9090765975     1.7214720807     0.3565262549
Bq         1.9072310722     1.7709634277     0.3633965247
Bq         1.9053855469     1.8204547748     0.3702667945
Bq         1.9035400217     1.8699461218     0.3771370643
Bq         1.9016944964     1.9194374688     0.3840073340
Bq         1.8998489711     1.9689288158     0.3908776038
Bq         1.8980034459     2.0184201628     0.3977478736
Bq         1.8961579206     2.0679115098     0.4046181434
Bq         1.8943123953     2.1174028569     0.4114884132
Bq         1.8924668701     2.1668942039     0.4183586829
Bq         1.8906213448     2.2163855509     0.4252289527
Bq         2.1234619966    -2.7327491509    -0.2488266343
Bq         2.1216164713    -2.6832578039    -0.2419563646
Bq         2.1197709460    -2.6337664569    -0.2350860948
Bq         2.1179254208    -2.5842751098    -0.2282158250
Bq         2.1160798955    -2.5347837628    -0.2213455552
Bq         2.1142343702    -2.4852924158    -0.2144752854
Bq         2.1123888450    -2.4358010688    -0.2076050157
Bq         2.1105433197    -2.3863097218    -0.2007347459
Bq         2.1086977944    -2.3368183748    -0.1938644761
Bq         2.1068522692    -2.2873270277    -0.1869942063
Bq         2.1050067439    -2.2378356807    -0.1801239365
Bq         2.1031612186    -2.1883443337    -0.1732536668
Bq         2.1013156934    -2.1388529867    -0.1663833970
Bq         2.0994701681    -2.0893616397    -0.1595131272
Bq         2.0976246428    -2.0398702926    -0.1526428574
Bq         2.0957791176    -1.9903789456    -0.1457725876
Bq         2.0939335923    -1.9408875986    -0.1389023179
Bq         2.0920880670    -1.8913962516    -0.1320320481
Bq         2.0902425418    -1.8419049046    -0.1251617783
Bq         2.0883970165    -1.7924135576    -0.1182915085
Bq         2.0865514912    -1.7429222105    -0.1114212388
Bq         2.0847059660    -1.6934308635    -0.1045509690
Bq         2.0828604407    -1.6439395165    -0.0976806992
Bq         2.0810149154    -1.5944481695    -0.0908104294
Bq         2.0791693902    -1.5449568225    -0.0839401596
Bq         2.0773238649    -1.4954654754    -0.0770698899
Bq         2.0754783396    -1.4459741284    -0.0701996201
Bq         2.0736328144    -1.3964827814    -0.0633293503
Bq         2.0717872891    -1.3469914344    -0.0564590805
Bq         2.0699417638    -1.2975000874    -0.0495888107
Bq         2.0680962385    -1.2480087404    -0.0427185410
Bq         2.0662507133    -1.1985173933    -0.0358482712
Bq         2.0644051880    -1.1490260463    -0.0289780014
Bq         2.0625596627    -1.0995346993    -0.0221077316
Bq         2.0607141375    -1.0500433523    -0.0152374618
Bq         2.0588686122    -1.0005520053    -0.0083671921
Bq         2.0570230869    -0.9510606583    -0.0014969223
Bq         2.0551775617    -0.9015693112     0.0053733475
Bq         2.0533320364    -0.8520779642     0.0122436173
Bq         2.0514865111    -0.8025866172     0.0191138871
Bq         2.0496409859    -0.7530952702     0.0259841568
Bq         2.0477954606    -0.7036039232     0.0328544266
Bq         2.0459499353    -0.6541125761     0.0397246964
Bq         2.0441044101    -0.6046212291     0.0465949662
Bq         2.0422588848    -0.5551298821     0.0534652360
Bq         2.0404133595    -0.5056385351     0.0603355057
Bq         2.0385678343    -0.4561471881     0.0672057755
Bq         2.0367223090    -0.4066558411     0.0740760453
Bq         2.0348767837    -0.3571644940     0.0809463151
Bq         2.0330312585    -0.3076731470     0.0878165849
Bq         2.0311857332    -0.2581818000     0.0946868546
Bq         2.0293402079    -0.2086904530     0.1015571244
Bq         2.0274946827    -0.1591991060     0.1084273942
Bq         2.0256491574    -0.1097077589     0.1152976640
Bq         2.0238036321    -0.0602164119     0.1221679338
Bq         2.0219581069    -0.0107250649     0.1290382035
Bq         2.0201125816     0.0387662821     0.1359084733
Bq         2.0182670563     0.0882576291     0.1427787431
Bq         2.0164215311     0.1377489761     0.1496490129
Bq         2.0145760058     0.1872403232     0.1565192826
Bq         2.0127304805     0.2367316702     0.1633895524
Bq         2.0108849552     0.2862230172     0.1702598222
Bq         2.0090394300     0.3357143642     0.1771300920
Bq         2.0071939047     0.3852057112     0.1840003618
Bq         2.0053483794     0.4346970583     0.1908706315
Bq         2.0035028542     0.4841884053     0.1977409013
Bq         2.0016573289     0.5336797523     0.2046111711
Bq         1.9998118036     0.5831710993     0.2114814409
Bq         1.9979662784     0.6326624463     0.2183517107
Bq         1.9961207531     0.6821537933     0.2252219804
Bq         1.9942752278     0.7316451404     0.2320922502
Bq         1.9924297026     0.7811364874     0.2389625200
Bq         1.9905841773     0.8306278344     0.2458327898
Bq         1.9887386520     0.8801191814     0.2527030596
Bq         1.9868931268     0.9296105284     0.2595733293
Bq         1.9850476015     0.9791018754     0.2664435991
Bq         1.9832020762     1.0285932225     0.2733138689
Bq         1.9813565510     1.0780845695     0.2801841387
Bq         1.9795110257     1.1275759165     0.2870544085
Bq         1.9776655004     1.1770672635     0.2939246782
Bq         1.9758199752     1.2265586105     0.3007949480
Bq         1.9739744499     1.2760499576     0.3076652178
Bq         1.9721289246     1.3255413046     0.3145354876
Bq         1.9702833994     1.3750326516     0.3214057574
Bq         1.9684378741     1.4245239986     0.3282760271
Bq         1.9665923488     1.4740153456     0.3351462969
Bq         1.9647468236     1.5235066926     0.3420165667
Bq         1.9629012983     1.5729980397     0.3488868365
Bq         1.9610557730     1.6224893867     0.3557571063
Bq         1.9592102478     1.6719807337     0.3626273760
Bq         1.9573647225     1.7214720807     0.3694976458
Bq         1.9555191972     1.7709634277     0.3763679156
Bq         1.9536736720     1.8204547748     0.3832381854
Bq         1.9518281467     1.8699461218     0.3901084551
Bq         1.9499826214     1.9194374688     0.3969787249
Bq         1.9481370961     1.9689288158     0.4038489947
Bq         1.9462915709     2.0184201628     0.4107192645
Bq         1.9444460456     2.0679115098     0.4175895343
Bq         1.9426005203     2.1174028569     0.4244598040
Bq         1.9407549951     2.1668942039     0.4313300738
Bq         1.9389094698     2.2163855509     0.4382003436
Bq         2.1717501216    -2.7327491509    -0.2358552434
Bq         2.1699045963    -2.6832578039    -0.2289849737
Bq         2.1680590711    -2.6337664569    -0.2221147039
Bq         2.1662135458    -2.5842751098    -0.2152444341
Bq         2.1643680205    -2.5347837628    -0.2083741643
Bq         2.1625224953    -2.4852924158    -0.2015038945
Bq         2.1606769700    -2.4358010688    -0.1946336248
Bq         2.1588314447    -2.3863097218    -0.1877633550
Bq         2.1569859195    -2.3368183748    -0.1808930852
Bq         2.1551403942    -2.2873270277    -0.1740228154
Bq         2.1532948689    -2.2378356807    -0.1671525457
Bq         2.1514493437    -2.1883443337    -0.1602822759
Bq         2.1496038184    -2.1388529867    -0.1534120061
Bq         2.1477582931    -2.0893616397    -0.1465417363
Bq         2.1459127679    -2.0398702926    -0.1396714665
Bq         2.1440672426    -1.9903789456    -0.1328011968
Bq         2.1422217173    -1.9408875986    -0.1259309270
Bq         2.1403761921    -1.8913962516    -0.1190606572
Bq         2.1385306668    -1.8419049046    -0.1121903874
Bq         2.1366851415    -1.7924135576    -0.1053201176
Bq         2.1348396162    -1.7429222105    -0.0984498479
Bq         2.1329940910    -1.6934308635    -0.0915795781
Bq         2.1311485657    -1.6439395165    -0.0847093083
Bq         2.1293030404    -1.5944481695    -0.0778390385
Bq         2.1274575152    -1.5449568225    -0.0709687687
Bq         2.1256119899    -1.4954654754    -0.0640984990
Bq         2.1237664646    -1.4459741284    -0.0572282292
Bq         2.1219209394    -1.3964827814    -0.0503579594
Bq         2.1200754141    -1.3469914344    -0.0434876896
Bq         2.1182298888    -1.2975000874    -0.0366174198
Bq         2.1163843636    -1.2480087404    -0.0297471501
Bq         2.1145388383    -1.1985173933    -0.0228768803
Bq         2.1126933130    -1.1490260463    -0.0160066105
Bq         2.1108477878    -1.0995346993    -0.0091363407
Bq         2.1090022625    -1.0500433523    -0.0022660709
Bq         2.1071567372    -1.0005520053     0.0046041988
Bq         2.1053112120    -0.9510606583     0.0114744686
Bq         2.1034656867    -0.9015693112     0.0183447384
Bq         2.1016201614    -0.8520779642     0.0252150082
Bq         2.0997746362    -0.8025866172     0.0320852780
Bq         2.0979291109    -0.7530952702     0.0389555477
Bq         2.0960835856    -0.7036039232     0.0458258175
Bq         2.0942380604    -0.6541125761     0.0526960873
Bq         2.0923925351    -0.6046212291     0.0595663571
Bq         2.0905470098    -0.5551298821     0.0664366269
Bq         2.0887014846    -0.5056385351     0.0733068966
Bq         2.0868559593    -0.4561471881     0.0801771664
Bq         2.0850104340    -0.4066558411     0.0870474362
Bq         2.0831649088    -0.3571644940     0.0939177060
Bq         2.0813193835    -0.3076731470     0.1007879757
Bq         2.0794738582    -0.2581818000     0.1076582455
Bq         2.0776283329    -0.2086904530     0.1145285153
Bq         2.0757828077    -0.1591991060     0.1213987851
Bq         2.0739372824    -0.1097077589     0.1282690549

1
2
3
4
5
6
7
8
9
10
11
12
13
14
15
16
17
18
19
20
21
22
23
24
25
26
27
28
29
30
31
32
33
34
35
36
37
38
39
40
41
42
43
44
45
46
47
48
49
50
51
52
53
54
55
56
57
58
59
60
61
62
63
64
65
66
67
68
69
70
71
72
73
74
75
76
77
78
79
80
81
82
83
84
85
86
87
88
89
90
91
92
93
94
95
96
97
98
99
100
101
102
103
104
105
106
107
108
109
110
111
112
113
114
115
116
117
118
119
120
121
122
123
124
125
126
127
128
129
130
131
132
133
134
135
136
137
138
139
140
141
142
143
144
145
146
147
148
149
150
151
152
153
154
155
156
157
158
159
160
161
162
163
164
165
166
167
168
169
170
171
172
173
174
175
176
177
178
179
180
181
182
183
184
185
186
187
188
189
190
191
192
193
194
195
196
197
198
199
200
201
202
203
204
205
206
207
208
209
210
211
212
213
214
215
216
217
218
219
220
221
222
223
224
225
226
227
228
229
230
231
232
233
234
235
236

