%nproc=8
%mem=1000MB
# rb3lyp/6-311+g** NMR geom=connectivity

Title

0 1
C    -4.0500558   -0.5771862    0.8136712
H    -5.0263804   -1.0082727    1.0024760
C    -3.9381552    0.6617804    0.2400876
H    -4.8252424    1.2338890   -0.0111295
C    -2.6768410    1.2433246    0.0057578
C    -1.4974121    0.5051527    0.2848253
C    -1.6508332   -0.7338728    0.9404026
H    -0.7713646   -1.2730967    1.2633753
C    -2.8898548   -1.2624035    1.1994307
H    -2.9683706   -2.2124563    1.7152676
C    -2.5773185    2.5963696   -0.4192930
H    -3.4870728    3.1412239   -0.6474055
C    -1.3741895    3.2147896   -0.4364030
H    -1.2997315    4.2742019   -0.6578144
C    -0.1719488    2.4994090   -0.1734588
C    -0.2043917    1.1018437    0.0192689
C     1.0513491    3.2042560   -0.0676222
H     1.0427344    4.2819499   -0.1896997
C     2.1942091    2.5487446    0.2579577
H     3.1168527    3.0912848    0.4334727
C     2.2216473    1.1336562    0.2934990
C     1.0486931    0.3945528    0.0302412
C     3.4483363    0.4614633    0.5573939
H     4.3095794    1.0606054    0.8334846
C     3.5427346   -0.8855926    0.4749463
H     4.4731467   -1.3939704    0.7038822
C     2.4490052   -1.6474447   -0.0196319
C     1.2150704   -1.0057258   -0.3013573
C     0.2531113   -1.7434440   -1.0216591
H    -0.6541356   -1.2535051   -1.3462847
C     0.4494193   -3.0628597   -1.3413779
H    -0.3083162   -3.5944309   -1.9054060
C     1.6251726   -3.7207967   -0.9552541
H     1.7670048   -4.7687404   -1.1927019
C     2.6109872   -3.0144177   -0.3183050
H     3.5525612   -3.4902813   -0.0646367
Bq        -0.6528370370    -0.4379217791    -1.0226769872
Bq        -0.6583402737    -0.3897252877    -1.0105603620
Bq        -0.6638435104    -0.3415287964    -0.9984437368
Bq        -0.6693467471    -0.2933323050    -0.9863271115
Bq        -0.6748499838    -0.2451358137    -0.9742104863
Bq        -0.6803532205    -0.1969393223    -0.9620938611
Bq        -0.6858564572    -0.1487428310    -0.9499772358
Bq        -0.6913596938    -0.1005463396    -0.9378606106
Bq        -0.6968629305    -0.0523498482    -0.9257439854
Bq        -0.7023661672    -0.0041533569    -0.9136273602
Bq        -0.7078694039     0.0440431345    -0.9015107349
Bq        -0.1120212986    -4.7756060011    -2.0924965640
Bq        -0.1175245353    -4.7274095098    -2.0803799388
Bq        -0.1230277720    -4.6792130184    -2.0682633136
Bq        -0.1285310087    -4.6310165271    -2.0561466883
Bq        -0.1340342454    -4.5828200357    -2.0440300631
Bq        -0.1395374821    -4.5346235444    -2.0319134379
Bq        -0.1450407188    -4.4864270530    -2.0197968126
Bq        -0.1505439554    -4.4382305616    -2.0076801874
Bq        -0.1560471921    -4.3900340703    -1.9955635622
Bq        -0.1615504288    -4.3418375789    -1.9834469370
Bq        -0.1670536655    -4.2936410876    -1.9713303117
Bq        -0.1725569022    -4.2454445962    -1.9592136865
Bq        -0.1780601389    -4.1972481049    -1.9470970613
Bq        -0.1835633756    -4.1490516135    -1.9349804360
Bq        -0.1890666122    -4.1008551222    -1.9228638108
Bq        -0.1945698489    -4.0526586308    -1.9107471856
Bq        -0.2000730856    -4.0044621394    -1.8986305604
Bq        -0.2055763223    -3.9562656481    -1.8865139351
Bq        -0.2110795590    -3.9080691567    -1.8743973099
Bq        -0.2165827957    -3.8598726654    -1.8622806847
Bq        -0.2220860324    -3.8116761740    -1.8501640594
Bq        -0.2275892690    -3.7634796827    -1.8380474342
Bq        -0.2330925057    -3.7152831913    -1.8259308090
Bq        -0.2385957424    -3.6670866999    -1.8138141838
Bq        -0.2440989791    -3.6188902086    -1.8016975585
Bq        -0.2496022158    -3.5706937172    -1.7895809333
Bq        -0.2551054525    -3.5224972259    -1.7774643081
Bq        -0.2606086892    -3.4743007345    -1.7653476828
Bq        -0.2661119258    -3.4261042432    -1.7532310576
Bq        -0.2716151625    -3.3779077518    -1.7411144324
Bq        -0.2771183992    -3.3297112605    -1.7289978071
Bq        -0.2826216359    -3.2815147691    -1.7168811819
Bq        -0.2881248726    -3.2333182777    -1.7047645567
Bq        -0.2936281093    -3.1851217864    -1.6926479315
Bq        -0.2991313460    -3.1369252950    -1.6805313062
Bq        -0.3046345826    -3.0887288037    -1.6684146810
Bq        -0.3101378193    -3.0405323123    -1.6562980558
Bq        -0.3156410560    -2.9923358210    -1.6441814305
Bq        -0.3211442927    -2.9441393296    -1.6320648053
Bq        -0.3266475294    -2.8959428383    -1.6199481801
Bq        -0.3321507661    -2.8477463469    -1.6078315549
Bq        -0.3376540028    -2.7995498555    -1.5957149296
Bq        -0.3431572394    -2.7513533642    -1.5835983044
Bq        -0.3486604761    -2.7031568728    -1.5714816792
Bq        -0.3541637128    -2.6549603815    -1.5593650539
Bq        -0.3596669495    -2.6067638901    -1.5472484287
Bq        -0.3651701862    -2.5585673988    -1.5351318035
Bq        -0.3706734229    -2.5103709074    -1.5230151783
Bq        -0.3761766596    -2.4621744160    -1.5108985530
Bq        -0.3816798963    -2.4139779247    -1.4987819278
Bq        -0.3871831329    -2.3657814333    -1.4866653026
Bq        -0.3926863696    -2.3175849420    -1.4745486773
Bq        -0.3981896063    -2.2693884506    -1.4624320521
Bq        -0.4036928430    -2.2211919593    -1.4503154269
Bq        -0.4091960797    -2.1729954679    -1.4381988017
Bq        -0.4146993164    -2.1247989766    -1.4260821764
Bq        -0.4202025531    -2.0766024852    -1.4139655512
Bq        -0.4257057897    -2.0284059938    -1.4018489260
Bq        -0.4312090264    -1.9802095025    -1.3897323007
Bq        -0.4367122631    -1.9320130111    -1.3776156755
Bq        -0.4422154998    -1.8838165198    -1.3654990503
Bq        -0.4477187365    -1.8356200284    -1.3533824250
Bq        -0.4532219732    -1.7874235371    -1.3412657998
Bq        -0.4587252099    -1.7392270457    -1.3291491746
Bq        -0.4642284465    -1.6910305543    -1.3170325494
Bq        -0.4697316832    -1.6428340630    -1.3049159241
Bq        -0.4752349199    -1.5946375716    -1.2927992989
Bq        -0.4807381566    -1.5464410803    -1.2806826737
Bq        -0.4862413933    -1.4982445889    -1.2685660484
Bq        -0.4917446300    -1.4500480976    -1.2564494232
Bq        -0.4972478667    -1.4018516062    -1.2443327980
Bq        -0.5027511033    -1.3536551149    -1.2322161728
Bq        -0.5082543400    -1.3054586235    -1.2200995475
Bq        -0.5137575767    -1.2572621321    -1.2079829223
Bq        -0.5192608134    -1.2090656408    -1.1958662971
Bq        -0.5247640501    -1.1608691494    -1.1837496718
Bq        -0.5302672868    -1.1126726581    -1.1716330466
Bq        -0.5357705235    -1.0644761667    -1.1595164214
Bq        -0.5412737601    -1.0162796754    -1.1473997962
Bq        -0.5467769968    -0.9680831840    -1.1352831709
Bq        -0.5522802335    -0.9198866927    -1.1231665457
Bq        -0.5577834702    -0.8716902013    -1.1110499205
Bq        -0.5632867069    -0.8234937099    -1.0989332952
Bq        -0.5687899436    -0.7752972186    -1.0868166700
Bq        -0.5742931803    -0.7271007272    -1.0747000448
Bq        -0.5797964169    -0.6789042359    -1.0625834196
Bq        -0.5852996536    -0.6307077445    -1.0504667943
Bq        -0.5908028903    -0.5825112532    -1.0383501691
Bq        -0.5963061270    -0.5343147618    -1.0262335439
Bq        -0.6018093637    -0.4861182704    -1.0141169186
Bq        -0.6073126004    -0.4379217791    -1.0020002934
Bq        -0.6128158371    -0.3897252877    -0.9898836682
Bq        -0.6183190738    -0.3415287964    -0.9777670429
Bq        -0.6238223104    -0.2933323050    -0.9656504177
Bq        -0.6293255471    -0.2451358137    -0.9535337925
Bq        -0.6348287838    -0.1969393223    -0.9414171673
Bq        -0.6403320205    -0.1487428310    -0.9293005420
Bq        -0.6458352572    -0.1005463396    -0.9171839168
Bq        -0.6513384939    -0.0523498482    -0.9050672916
Bq        -0.6568417306    -0.0041533569    -0.8929506663
Bq        -0.6623449672     0.0440431345    -0.8808340411
Bq        -0.0664968620    -4.7756060011    -2.0718198702
Bq        -0.0720000987    -4.7274095098    -2.0597032450
Bq        -0.0775033353    -4.6792130184    -2.0475866197
Bq        -0.0830065720    -4.6310165271    -2.0354699945
Bq        -0.0885098087    -4.5828200357    -2.0233533693
Bq        -0.0940130454    -4.5346235444    -2.0112367441
Bq        -0.0995162821    -4.4864270530    -1.9991201188
Bq        -0.1050195188    -4.4382305616    -1.9870034936
Bq        -0.1105227555    -4.3900340703    -1.9748868684
Bq        -0.1160259922    -4.3418375789    -1.9627702431
Bq        -0.1215292288    -4.2936410876    -1.9506536179
Bq        -0.1270324655    -4.2454445962    -1.9385369927
Bq        -0.1325357022    -4.1972481049    -1.9264203675
Bq        -0.1380389389    -4.1490516135    -1.9143037422
Bq        -0.1435421756    -4.1008551222    -1.9021871170
Bq        -0.1490454123    -4.0526586308    -1.8900704918
Bq        -0.1545486490    -4.0044621394    -1.8779538665
Bq        -0.1600518856    -3.9562656481    -1.8658372413
Bq        -0.1655551223    -3.9080691567    -1.8537206161
Bq        -0.1710583590    -3.8598726654    -1.8416039909
Bq        -0.1765615957    -3.8116761740    -1.8294873656
Bq        -0.1820648324    -3.7634796827    -1.8173707404
Bq        -0.1875680691    -3.7152831913    -1.8052541152
Bq        -0.1930713058    -3.6670866999    -1.7931374899
Bq        -0.1985745424    -3.6188902086    -1.7810208647
Bq        -0.2040777791    -3.5706937172    -1.7689042395
Bq        -0.2095810158    -3.5224972259    -1.7567876142
Bq        -0.2150842525    -3.4743007345    -1.7446709890
Bq        -0.2205874892    -3.4261042432    -1.7325543638
Bq        -0.2260907259    -3.3779077518    -1.7204377386
Bq        -0.2315939626    -3.3297112605    -1.7083211133
Bq        -0.2370971992    -3.2815147691    -1.6962044881
Bq        -0.2426004359    -3.2333182777    -1.6840878629
Bq        -0.2481036726    -3.1851217864    -1.6719712376
Bq        -0.2536069093    -3.1369252950    -1.6598546124
Bq        -0.2591101460    -3.0887288037    -1.6477379872
Bq        -0.2646133827    -3.0405323123    -1.6356213620
Bq        -0.2701166194    -2.9923358210    -1.6235047367
Bq        -0.2756198560    -2.9441393296    -1.6113881115
Bq        -0.2811230927    -2.8959428383    -1.5992714863
Bq        -0.2866263294    -2.8477463469    -1.5871548610
Bq        -0.2921295661    -2.7995498555    -1.5750382358
Bq        -0.2976328028    -2.7513533642    -1.5629216106
Bq        -0.3031360395    -2.7031568728    -1.5508049854
Bq        -0.3086392762    -2.6549603815    -1.5386883601
Bq        -0.3141425128    -2.6067638901    -1.5265717349
Bq        -0.3196457495    -2.5585673988    -1.5144551097
Bq        -0.3251489862    -2.5103709074    -1.5023384844
Bq        -0.3306522229    -2.4621744160    -1.4902218592
Bq        -0.3361554596    -2.4139779247    -1.4781052340
Bq        -0.3416586963    -2.3657814333    -1.4659886088
Bq        -0.3471619330    -2.3175849420    -1.4538719835
Bq        -0.3526651697    -2.2693884506    -1.4417553583
Bq        -0.3581684063    -2.2211919593    -1.4296387331
Bq        -0.3636716430    -2.1729954679    -1.4175221078
Bq        -0.3691748797    -2.1247989766    -1.4054054826
Bq        -0.3746781164    -2.0766024852    -1.3932888574
Bq        -0.3801813531    -2.0284059938    -1.3811722321
Bq        -0.3856845898    -1.9802095025    -1.3690556069
Bq        -0.3911878265    -1.9320130111    -1.3569389817
Bq        -0.3966910631    -1.8838165198    -1.3448223565
Bq        -0.4021942998    -1.8356200284    -1.3327057312
Bq        -0.4076975365    -1.7874235371    -1.3205891060
Bq        -0.4132007732    -1.7392270457    -1.3084724808
Bq        -0.4187040099    -1.6910305543    -1.2963558555
Bq        -0.4242072466    -1.6428340630    -1.2842392303
Bq        -0.4297104833    -1.5946375716    -1.2721226051
Bq        -0.4352137199    -1.5464410803    -1.2600059799
Bq        -0.4407169566    -1.4982445889    -1.2478893546
Bq        -0.4462201933    -1.4500480976    -1.2357727294
Bq        -0.4517234300    -1.4018516062    -1.2236561042
Bq        -0.4572266667    -1.3536551149    -1.2115394789
Bq        -0.4627299034    -1.3054586235    -1.1994228537
Bq        -0.4682331401    -1.2572621321    -1.1873062285
Bq        -0.4737363767    -1.2090656408    -1.1751896033
Bq        -0.4792396134    -1.1608691494    -1.1630729780
Bq        -0.4847428501    -1.1126726581    -1.1509563528
Bq        -0.4902460868    -1.0644761667    -1.1388397276
Bq        -0.4957493235    -1.0162796754    -1.1267231023
Bq        -0.5012525602    -0.9680831840    -1.1146064771
Bq        -0.5067557969    -0.9198866927    -1.1024898519
Bq        -0.5122590335    -0.8716902013    -1.0903732267
Bq        -0.5177622702    -0.8234937099    -1.0782566014
Bq        -0.5232655069    -0.7752972186    -1.0661399762
Bq        -0.5287687436    -0.7271007272    -1.0540233510
Bq        -0.5342719803    -0.6789042359    -1.0419067257
Bq        -0.5397752170    -0.6307077445    -1.0297901005
Bq        -0.5452784537    -0.5825112532    -1.0176734753

1
2
3
4
5
6
7
8
9
10
11
12
13
14
15
16
17
18
19
20
21
22
23
24
25
26
27
28
29
30
31
32
33
34
35
36
37
38
39
40
41
42
43
44
45
46
47
48
49
50
51
52
53
54
55
56
57
58
59
60
61
62
63
64
65
66
67
68
69
70
71
72
73
74
75
76
77
78
79
80
81
82
83
84
85
86
87
88
89
90
91
92
93
94
95
96
97
98
99
100
101
102
103
104
105
106
107
108
109
110
111
112
113
114
115
116
117
118
119
120
121
122
123
124
125
126
127
128
129
130
131
132
133
134
135
136
137
138
139
140
141
142
143
144
145
146
147
148
149
150
151
152
153
154
155
156
157
158
159
160
161
162
163
164
165
166
167
168
169
170
171
172
173
174
175
176
177
178
179
180
181
182
183
184
185
186
187
188
189
190
191
192
193
194
195
196
197
198
199
200
201
202
203
204
205
206
207
208
209
210
211
212
213
214
215
216
217
218
219
220
221
222
223
224
225
226
227
228
229
230
231
232
233
234
235
236

