%nproc=8
%mem=1000MB
# rb3lyp/6-311+g** NMR geom=connectivity

Title

0 1
C    -4.0500558   -0.5771862    0.8136712
H    -5.0263804   -1.0082727    1.0024760
C    -3.9381552    0.6617804    0.2400876
H    -4.8252424    1.2338890   -0.0111295
C    -2.6768410    1.2433246    0.0057578
C    -1.4974121    0.5051527    0.2848253
C    -1.6508332   -0.7338728    0.9404026
H    -0.7713646   -1.2730967    1.2633753
C    -2.8898548   -1.2624035    1.1994307
H    -2.9683706   -2.2124563    1.7152676
C    -2.5773185    2.5963696   -0.4192930
H    -3.4870728    3.1412239   -0.6474055
C    -1.3741895    3.2147896   -0.4364030
H    -1.2997315    4.2742019   -0.6578144
C    -0.1719488    2.4994090   -0.1734588
C    -0.2043917    1.1018437    0.0192689
C     1.0513491    3.2042560   -0.0676222
H     1.0427344    4.2819499   -0.1896997
C     2.1942091    2.5487446    0.2579577
H     3.1168527    3.0912848    0.4334727
C     2.2216473    1.1336562    0.2934990
C     1.0486931    0.3945528    0.0302412
C     3.4483363    0.4614633    0.5573939
H     4.3095794    1.0606054    0.8334846
C     3.5427346   -0.8855926    0.4749463
H     4.4731467   -1.3939704    0.7038822
C     2.4490052   -1.6474447   -0.0196319
C     1.2150704   -1.0057258   -0.3013573
C     0.2531113   -1.7434440   -1.0216591
H    -0.6541356   -1.2535051   -1.3462847
C     0.4494193   -3.0628597   -1.3413779
H    -0.3083162   -3.5944309   -1.9054060
C     1.6251726   -3.7207967   -0.9552541
H     1.7670048   -4.7687404   -1.1927019
C     2.6109872   -3.0144177   -0.3183050
H     3.5525612   -3.4902813   -0.0646367
Bq         2.4472674703     0.3155554860     0.3430601924
Bq         2.4476235373     0.3654950937     0.3406293900
Bq         2.4479796043     0.4154347014     0.3381985876
Bq         2.4483356713     0.4653743091     0.3357677853
Bq         2.4486917382     0.5153139168     0.3333369829
Bq         2.4490478052     0.5652535245     0.3309061805
Bq         2.4494038722     0.6151931321     0.3284753781
Bq         2.4497599391     0.6651327398     0.3260445757
Bq         2.4501160061     0.7150723475     0.3236137734
Bq         2.4504720731     0.7650119552     0.3211829710
Bq         2.4508281401     0.8149515629     0.3187521686
Bq         2.4511842070     0.8648911706     0.3163213662
Bq         2.4515402740     0.9148307783     0.3138905638
Bq         2.4518963410     0.9647703860     0.3114597614
Bq         2.4522524079     1.0147099936     0.3090289591
Bq         2.4526084749     1.0646496013     0.3065981567
Bq         2.4529645419     1.1145892090     0.3041673543
Bq         2.4533206088     1.1645288167     0.3017365519
Bq         2.4536766758     1.2144684244     0.2993057495
Bq         2.4540327428     1.2644080321     0.2968749471
Bq         2.4543888098     1.3143476398     0.2944441448
Bq         2.4547448767     1.3642872475     0.2920133424
Bq         2.4551009437     1.4142268552     0.2895825400
Bq         2.4554570107     1.4641664628     0.2871517376
Bq         2.4558130776     1.5141060705     0.2847209352
Bq         2.4561691446     1.5640456782     0.2822901328
Bq         2.4565252116     1.6139852859     0.2798593305
Bq         2.4568812786     1.6639248936     0.2774285281
Bq         2.4572373455     1.7138645013     0.2749977257
Bq         2.4575934125     1.7638041090     0.2725669233
Bq         2.4579494795     1.8137437167     0.2701361209
Bq         2.4583055464     1.8636833244     0.2677053185
Bq         2.4586616134     1.9136229320     0.2652745162
Bq         2.4590176804     1.9635625397     0.2628437138
Bq         2.4593737474     2.0135021474     0.2604129114
Bq         2.4597298143     2.0634417551     0.2579821090
Bq         2.4600858813     2.1133813628     0.2555513066
Bq         2.4604419483     2.1633209705     0.2531205042
Bq         2.4607980152     2.2132605782     0.2506897019
Bq         2.4611540822     2.2632001859     0.2482588995
Bq         2.4615101492     2.3131397936     0.2458280971
Bq         2.4618662162     2.3630794012     0.2433972947
Bq         2.4622222831     2.4130190089     0.2409664923
Bq         2.4625783501     2.4629586166     0.2385356899
Bq         2.4629344171     2.5128982243     0.2361048876
Bq         2.4632904840     2.5628378320     0.2336740852
Bq         2.4636465510     2.6127774397     0.2312432828
Bq         2.4640026180     2.6627170474     0.2288124804
Bq         2.4643586849     2.7126566551     0.2263816780
Bq         2.4647147519     2.7625962627     0.2239508756
Bq         2.4650708189     2.8125358704     0.2215200733
Bq         2.4654268859     2.8624754781     0.2190892709
Bq         2.4657829528     2.9124150858     0.2166584685
Bq         2.4661390198     2.9623546935     0.2142276661
Bq         2.4664950868     3.0122943012     0.2117968637
Bq         2.4668511537     3.0622339089     0.2093660613
Bq         2.4672072207     3.1121735166     0.2069352590
Bq         2.4675632877     3.1621131243     0.2045044566
Bq         2.4679193547     3.2120527319     0.2020736542
Bq         2.4682754216     3.2619923396     0.1996428518
Bq         2.4686314886     3.3119319473     0.1972120494
Bq         2.4689875556     3.3618715550     0.1947812470
Bq         2.4693436225     3.4118111627     0.1923504447
Bq         2.4696996895     3.4617507704     0.1899196423
Bq         2.4700557565     3.5116903781     0.1874888399
Bq         2.4704118235     3.5616299858     0.1850580375
Bq         2.4707678904     3.6115695935     0.1826272351
Bq         2.4711239574     3.6615092011     0.1801964327
Bq         2.4714800244     3.7114488088     0.1777656304
Bq         2.4718360913     3.7613884165     0.1753348280
Bq         2.4721921583     3.8113280242     0.1729040256
Bq         2.4725482253     3.8612676319     0.1704732232
Bq         2.4729042922     3.9112072396     0.1680424208
Bq         2.4732603592     3.9611468473     0.1656116184
Bq         2.4736164262     4.0110864550     0.1631808161
Bq         2.4739724932     4.0610260627     0.1607500137
Bq         2.4743285601     4.1109656703     0.1583192113
Bq         2.4746846271     4.1609052780     0.1558884089
Bq         2.4750406941     4.2108448857     0.1534576065
Bq         2.4753967610     4.2607844934     0.1510268041
Bq         2.4757528280     4.3107241011     0.1485960018
Bq         2.4896181929    -0.6832366678     0.3989229695
Bq         2.4899742598    -0.6332970601     0.3964921672
Bq         2.4903303268    -0.5833574524     0.3940613648
Bq         2.4906863938    -0.5334178447     0.3916305624
Bq         2.4910424607    -0.4834782370     0.3891997600
Bq         2.4913985277    -0.4335386293     0.3867689576
Bq         2.4917545947    -0.3835990216     0.3843381552
Bq         2.4921106617    -0.3336594139     0.3819073529
Bq         2.4924667286    -0.2837198063     0.3794765505
Bq         2.4928227956    -0.2337801986     0.3770457481
Bq         2.4931788626    -0.1838405909     0.3746149457
Bq         2.4935349295    -0.1339009832     0.3721841433
Bq         2.4938909965    -0.0839613755     0.3697533409
Bq         2.4942470635    -0.0340217678     0.3673225386
Bq         2.4946031305     0.0159178399     0.3648917362
Bq         2.4949591974     0.0658574476     0.3624609338
Bq         2.4953152644     0.1157970553     0.3600301314
Bq         2.4956713314     0.1657366629     0.3575993290
Bq         2.4960273983     0.2156762706     0.3551685266
Bq         2.4963834653     0.2656158783     0.3527377243
Bq         2.4967395323     0.3155554860     0.3503069219
Bq         2.4970955993     0.3654950937     0.3478761195
Bq         2.4974516662     0.4154347014     0.3454453171
Bq         2.4978077332     0.4653743091     0.3430145147
Bq         2.4981638002     0.5153139168     0.3405837123
Bq         2.4985198671     0.5652535245     0.3381529100
Bq         2.4988759341     0.6151931321     0.3357221076
Bq         2.4992320011     0.6651327398     0.3332913052
Bq         2.4995880680     0.7150723475     0.3308605028
Bq         2.4999441350     0.7650119552     0.3284297004
Bq         2.5003002020     0.8149515629     0.3259988980
Bq         2.5006562690     0.8648911706     0.3235680957
Bq         2.5010123359     0.9148307783     0.3211372933
Bq         2.5013684029     0.9647703860     0.3187064909
Bq         2.5017244699     1.0147099936     0.3162756885
Bq         2.5020805368     1.0646496013     0.3138448861
Bq         2.5024366038     1.1145892090     0.3114140837
Bq         2.5027926708     1.1645288167     0.3089832814
Bq         2.5031487378     1.2144684244     0.3065524790
Bq         2.5035048047     1.2644080321     0.3041216766
Bq         2.5038608717     1.3143476398     0.3016908742
Bq         2.5042169387     1.3642872475     0.2992600718
Bq         2.5045730056     1.4142268552     0.2968292694
Bq         2.5049290726     1.4641664628     0.2943984671
Bq         2.5052851396     1.5141060705     0.2919676647
Bq         2.5056412066     1.5640456782     0.2895368623
Bq         2.5059972735     1.6139852859     0.2871060599
Bq         2.5063533405     1.6639248936     0.2846752575
Bq         2.5067094075     1.7138645013     0.2822444551
Bq         2.5070654744     1.7638041090     0.2798136528
Bq         2.5074215414     1.8137437167     0.2773828504
Bq         2.5077776084     1.8636833244     0.2749520480
Bq         2.5081336753     1.9136229320     0.2725212456
Bq         2.5084897423     1.9635625397     0.2700904432
Bq         2.5088458093     2.0135021474     0.2676596408
Bq         2.5092018763     2.0634417551     0.2652288385
Bq         2.5095579432     2.1133813628     0.2627980361
Bq         2.5099140102     2.1633209705     0.2603672337
Bq         2.5102700772     2.2132605782     0.2579364313
Bq         2.5106261441     2.2632001859     0.2555056289
Bq         2.5109822111     2.3131397936     0.2530748265
Bq         2.5113382781     2.3630794012     0.2506440242
Bq         2.5116943451     2.4130190089     0.2482132218
Bq         2.5120504120     2.4629586166     0.2457824194
Bq         2.5124064790     2.5128982243     0.2433516170
Bq         2.5127625460     2.5628378320     0.2409208146
Bq         2.5131186129     2.6127774397     0.2384900122
Bq         2.5134746799     2.6627170474     0.2360592099
Bq         2.5138307469     2.7126566551     0.2336284075
Bq         2.5141868139     2.7625962627     0.2311976051
Bq         2.5145428808     2.8125358704     0.2287668027
Bq         2.5148989478     2.8624754781     0.2263360003
Bq         2.5152550148     2.9124150858     0.2239051979
Bq         2.5156110817     2.9623546935     0.2214743956
Bq         2.5159671487     3.0122943012     0.2190435932
Bq         2.5163232157     3.0622339089     0.2166127908
Bq         2.5166792826     3.1121735166     0.2141819884
Bq         2.5170353496     3.1621131243     0.2117511860
Bq         2.5173914166     3.2120527319     0.2093203836
Bq         2.5177474836     3.2619923396     0.2068895813
Bq         2.5181035505     3.3119319473     0.2044587789
Bq         2.5184596175     3.3618715550     0.2020279765
Bq         2.5188156845     3.4118111627     0.1995971741
Bq         2.5191717514     3.4617507704     0.1971663717
Bq         2.5195278184     3.5116903781     0.1947355693
Bq         2.5198838854     3.5616299858     0.1923047670
Bq         2.5202399524     3.6115695935     0.1898739646
Bq         2.5205960193     3.6615092011     0.1874431622
Bq         2.5209520863     3.7114488088     0.1850123598
Bq         2.5213081533     3.7613884165     0.1825815574
Bq         2.5216642202     3.8113280242     0.1801507550
Bq         2.5220202872     3.8612676319     0.1777199527
Bq         2.5223763542     3.9112072396     0.1752891503
Bq         2.5227324212     3.9611468473     0.1728583479
Bq         2.5230884881     4.0110864550     0.1704275455
Bq         2.5234445551     4.0610260627     0.1679967431
Bq         2.5238006221     4.1109656703     0.1655659407
Bq         2.5241566890     4.1609052780     0.1631351384
Bq         2.5245127560     4.2108448857     0.1607043360
Bq         2.5248688230     4.2607844934     0.1582735336
Bq         2.5252248899     4.3107241011     0.1558427312
Bq         2.5390902548    -0.6832366678     0.4061696990
Bq         2.5394463218    -0.6332970601     0.4037388966
Bq         2.5398023887    -0.5833574524     0.4013080942
Bq         2.5401584557    -0.5334178447     0.3988772918
Bq         2.5405145227    -0.4834782370     0.3964464895
Bq         2.5408705897    -0.4335386293     0.3940156871
Bq         2.5412266566    -0.3835990216     0.3915848847
Bq         2.5415827236    -0.3336594139     0.3891540823
Bq         2.5419387906    -0.2837198063     0.3867232799
Bq         2.5422948575    -0.2337801986     0.3842924775
Bq         2.5426509245    -0.1838405909     0.3818616752
Bq         2.5430069915    -0.1339009832     0.3794308728
Bq         2.5433630585    -0.0839613755     0.3770000704
Bq         2.5437191254    -0.0340217678     0.3745692680
Bq         2.5440751924     0.0159178399     0.3721384656
Bq         2.5444312594     0.0658574476     0.3697076632
Bq         2.5447873263     0.1157970553     0.3672768609
Bq         2.5451433933     0.1657366629     0.3648460585

1
2
3
4
5
6
7
8
9
10
11
12
13
14
15
16
17
18
19
20
21
22
23
24
25
26
27
28
29
30
31
32
33
34
35
36
37
38
39
40
41
42
43
44
45
46
47
48
49
50
51
52
53
54
55
56
57
58
59
60
61
62
63
64
65
66
67
68
69
70
71
72
73
74
75
76
77
78
79
80
81
82
83
84
85
86
87
88
89
90
91
92
93
94
95
96
97
98
99
100
101
102
103
104
105
106
107
108
109
110
111
112
113
114
115
116
117
118
119
120
121
122
123
124
125
126
127
128
129
130
131
132
133
134
135
136
137
138
139
140
141
142
143
144
145
146
147
148
149
150
151
152
153
154
155
156
157
158
159
160
161
162
163
164
165
166
167
168
169
170
171
172
173
174
175
176
177
178
179
180
181
182
183
184
185
186
187
188
189
190
191
192
193
194
195
196
197
198
199
200
201
202
203
204
205
206
207
208
209
210
211
212
213
214
215
216
217
218
219
220
221
222
223
224
225
226
227
228
229
230
231
232
233
234
235
236

