%nproc=8
%mem=1000MB
# rb3lyp/6-311+g** NMR geom=connectivity

Title

0 1
C    -4.0500558   -0.5771862    0.8136712
H    -5.0263804   -1.0082727    1.0024760
C    -3.9381552    0.6617804    0.2400876
H    -4.8252424    1.2338890   -0.0111295
C    -2.6768410    1.2433246    0.0057578
C    -1.4974121    0.5051527    0.2848253
C    -1.6508332   -0.7338728    0.9404026
H    -0.7713646   -1.2730967    1.2633753
C    -2.8898548   -1.2624035    1.1994307
H    -2.9683706   -2.2124563    1.7152676
C    -2.5773185    2.5963696   -0.4192930
H    -3.4870728    3.1412239   -0.6474055
C    -1.3741895    3.2147896   -0.4364030
H    -1.2997315    4.2742019   -0.6578144
C    -0.1719488    2.4994090   -0.1734588
C    -0.2043917    1.1018437    0.0192689
C     1.0513491    3.2042560   -0.0676222
H     1.0427344    4.2819499   -0.1896997
C     2.1942091    2.5487446    0.2579577
H     3.1168527    3.0912848    0.4334727
C     2.2216473    1.1336562    0.2934990
C     1.0486931    0.3945528    0.0302412
C     3.4483363    0.4614633    0.5573939
H     4.3095794    1.0606054    0.8334846
C     3.5427346   -0.8855926    0.4749463
H     4.4731467   -1.3939704    0.7038822
C     2.4490052   -1.6474447   -0.0196319
C     1.2150704   -1.0057258   -0.3013573
C     0.2531113   -1.7434440   -1.0216591
H    -0.6541356   -1.2535051   -1.3462847
C     0.4494193   -3.0628597   -1.3413779
H    -0.3083162   -3.5944309   -1.9054060
C     1.6251726   -3.7207967   -0.9552541
H     1.7670048   -4.7687404   -1.1927019
C     2.6109872   -3.0144177   -0.3183050
H     3.5525612   -3.4902813   -0.0646367
Bq         1.7964912834    -2.7513533642    -0.6117936951
Bq         1.7909880467    -2.7031568728    -0.5996770699
Bq         1.7854848100    -2.6549603815    -0.5875604447
Bq         1.7799815734    -2.6067638901    -0.5754438194
Bq         1.7744783367    -2.5585673988    -0.5633271942
Bq         1.7689751000    -2.5103709074    -0.5512105690
Bq         1.7634718633    -2.4621744160    -0.5390939438
Bq         1.7579686266    -2.4139779247    -0.5269773185
Bq         1.7524653899    -2.3657814333    -0.5148606933
Bq         1.7469621532    -2.3175849420    -0.5027440681
Bq         1.7414589166    -2.2693884506    -0.4906274428
Bq         1.7359556799    -2.2211919593    -0.4785108176
Bq         1.7304524432    -2.1729954679    -0.4663941924
Bq         1.7249492065    -2.1247989766    -0.4542775672
Bq         1.7194459698    -2.0766024852    -0.4421609419
Bq         1.7139427331    -2.0284059938    -0.4300443167
Bq         1.7084394964    -1.9802095025    -0.4179276915
Bq         1.7029362598    -1.9320130111    -0.4058110662
Bq         1.6974330231    -1.8838165198    -0.3936944410
Bq         1.6919297864    -1.8356200284    -0.3815778158
Bq         1.6864265497    -1.7874235371    -0.3694611906
Bq         1.6809233130    -1.7392270457    -0.3573445653
Bq         1.6754200763    -1.6910305543    -0.3452279401
Bq         1.6699168396    -1.6428340630    -0.3331113149
Bq         1.6644136030    -1.5946375716    -0.3209946896
Bq         1.6589103663    -1.5464410803    -0.3088780644
Bq         1.6534071296    -1.4982445889    -0.2967614392
Bq         1.6479038929    -1.4500480976    -0.2846448139
Bq         1.6424006562    -1.4018516062    -0.2725281887
Bq         1.6368974195    -1.3536551149    -0.2604115635
Bq         1.6313941828    -1.3054586235    -0.2482949383
Bq         1.6258909462    -1.2572621321    -0.2361783130
Bq         1.6203877095    -1.2090656408    -0.2240616878
Bq         1.6148844728    -1.1608691494    -0.2119450626
Bq         1.6093812361    -1.1126726581    -0.1998284373
Bq         1.6038779994    -1.0644761667    -0.1877118121
Bq         1.5983747627    -1.0162796754    -0.1755951869
Bq         1.5928715260    -0.9680831840    -0.1634785617
Bq         1.5873682893    -0.9198866927    -0.1513619364
Bq         1.5818650527    -0.8716902013    -0.1392453112
Bq         1.5763618160    -0.8234937099    -0.1271286860
Bq         1.5708585793    -0.7752972186    -0.1150120607
Bq         1.5653553426    -0.7271007272    -0.1028954355
Bq         1.5598521059    -0.6789042359    -0.0907788103
Bq         1.5543488692    -0.6307077445    -0.0786621851
Bq         1.5488456325    -0.5825112532    -0.0665455598
Bq         1.5433423959    -0.5343147618    -0.0544289346
Bq         1.5378391592    -0.4861182704    -0.0423123094
Bq         1.5323359225    -0.4379217791    -0.0301956841
Bq         1.5268326858    -0.3897252877    -0.0180790589
Bq         1.5213294491    -0.3415287964    -0.0059624337
Bq         1.5158262124    -0.2933323050     0.0061541915
Bq         1.5103229757    -0.2451358137     0.0182708168
Bq         1.5048197391    -0.1969393223     0.0303874420
Bq         1.4993165024    -0.1487428310     0.0425040672
Bq         1.4938132657    -0.1005463396     0.0546206925
Bq         1.4883100290    -0.0523498482     0.0667373177
Bq         1.4828067923    -0.0041533569     0.0788539429
Bq         1.4773035556     0.0440431345     0.0909705681
Bq         2.0731516609    -4.7756060011    -1.1000152609
Bq         2.0676484242    -4.7274095098    -1.0878986357
Bq         2.0621451875    -4.6792130184    -1.0757820105
Bq         2.0566419508    -4.6310165271    -1.0636653852
Bq         2.0511387141    -4.5828200357    -1.0515487600
Bq         2.0456354775    -4.5346235444    -1.0394321348
Bq         2.0401322408    -4.4864270530    -1.0273155096
Bq         2.0346290041    -4.4382305616    -1.0151988843
Bq         2.0291257674    -4.3900340703    -1.0030822591
Bq         2.0236225307    -4.3418375789    -0.9909656339
Bq         2.0181192940    -4.2936410876    -0.9788490086
Bq         2.0126160573    -4.2454445962    -0.9667323834
Bq         2.0071128207    -4.1972481049    -0.9546157582
Bq         2.0016095840    -4.1490516135    -0.9424991330
Bq         1.9961063473    -4.1008551222    -0.9303825077
Bq         1.9906031106    -4.0526586308    -0.9182658825
Bq         1.9850998739    -4.0044621394    -0.9061492573
Bq         1.9795966372    -3.9562656481    -0.8940326320
Bq         1.9740934005    -3.9080691567    -0.8819160068
Bq         1.9685901639    -3.8598726654    -0.8697993816
Bq         1.9630869272    -3.8116761740    -0.8576827564
Bq         1.9575836905    -3.7634796827    -0.8455661311
Bq         1.9520804538    -3.7152831913    -0.8334495059
Bq         1.9465772171    -3.6670866999    -0.8213328807
Bq         1.9410739804    -3.6188902086    -0.8092162554
Bq         1.9355707437    -3.5706937172    -0.7970996302
Bq         1.9300675071    -3.5224972259    -0.7849830050
Bq         1.9245642704    -3.4743007345    -0.7728663798
Bq         1.9190610337    -3.4261042432    -0.7607497545
Bq         1.9135577970    -3.3779077518    -0.7486331293
Bq         1.9080545603    -3.3297112605    -0.7365165041
Bq         1.9025513236    -3.2815147691    -0.7243998788
Bq         1.8970480869    -3.2333182777    -0.7122832536
Bq         1.8915448503    -3.1851217864    -0.7001666284
Bq         1.8860416136    -3.1369252950    -0.6880500032
Bq         1.8805383769    -3.0887288037    -0.6759333779
Bq         1.8750351402    -3.0405323123    -0.6638167527
Bq         1.8695319035    -2.9923358210    -0.6517001275
Bq         1.8640286668    -2.9441393296    -0.6395835022
Bq         1.8585254301    -2.8959428383    -0.6274668770
Bq         1.8530221934    -2.8477463469    -0.6153502518
Bq         1.8475189568    -2.7995498555    -0.6032336265
Bq         1.8420157201    -2.7513533642    -0.5911170013
Bq         1.8365124834    -2.7031568728    -0.5790003761
Bq         1.8310092467    -2.6549603815    -0.5668837509
Bq         1.8255060100    -2.6067638901    -0.5547671256
Bq         1.8200027733    -2.5585673988    -0.5426505004
Bq         1.8144995366    -2.5103709074    -0.5305338752
Bq         1.8089963000    -2.4621744160    -0.5184172499
Bq         1.8034930633    -2.4139779247    -0.5063006247
Bq         1.7979898266    -2.3657814333    -0.4941839995
Bq         1.7924865899    -2.3175849420    -0.4820673743
Bq         1.7869833532    -2.2693884506    -0.4699507490
Bq         1.7814801165    -2.2211919593    -0.4578341238
Bq         1.7759768798    -2.1729954679    -0.4457174986
Bq         1.7704736432    -2.1247989766    -0.4336008733
Bq         1.7649704065    -2.0766024852    -0.4214842481
Bq         1.7594671698    -2.0284059938    -0.4093676229
Bq         1.7539639331    -1.9802095025    -0.3972509977
Bq         1.7484606964    -1.9320130111    -0.3851343724
Bq         1.7429574597    -1.8838165198    -0.3730177472
Bq         1.7374542230    -1.8356200284    -0.3609011220
Bq         1.7319509864    -1.7874235371    -0.3487844967
Bq         1.7264477497    -1.7392270457    -0.3366678715
Bq         1.7209445130    -1.6910305543    -0.3245512463
Bq         1.7154412763    -1.6428340630    -0.3124346211
Bq         1.7099380396    -1.5946375716    -0.3003179958
Bq         1.7044348029    -1.5464410803    -0.2882013706
Bq         1.6989315662    -1.4982445889    -0.2760847454
Bq         1.6934283296    -1.4500480976    -0.2639681201
Bq         1.6879250929    -1.4018516062    -0.2518514949
Bq         1.6824218562    -1.3536551149    -0.2397348697
Bq         1.6769186195    -1.3054586235    -0.2276182444
Bq         1.6714153828    -1.2572621321    -0.2155016192
Bq         1.6659121461    -1.2090656408    -0.2033849940
Bq         1.6604089094    -1.1608691494    -0.1912683688
Bq         1.6549056728    -1.1126726581    -0.1791517435
Bq         1.6494024361    -1.0644761667    -0.1670351183
Bq         1.6438991994    -1.0162796754    -0.1549184931
Bq         1.6383959627    -0.9680831840    -0.1428018678
Bq         1.6328927260    -0.9198866927    -0.1306852426
Bq         1.6273894893    -0.8716902013    -0.1185686174
Bq         1.6218862526    -0.8234937099    -0.1064519922
Bq         1.6163830159    -0.7752972186    -0.0943353669
Bq         1.6108797793    -0.7271007272    -0.0822187417
Bq         1.6053765426    -0.6789042359    -0.0701021165
Bq         1.5998733059    -0.6307077445    -0.0579854912
Bq         1.5943700692    -0.5825112532    -0.0458688660
Bq         1.5888668325    -0.5343147618    -0.0337522408
Bq         1.5833635958    -0.4861182704    -0.0216356156
Bq         1.5778603591    -0.4379217791    -0.0095189903
Bq         1.5723571225    -0.3897252877     0.0025976349
Bq         1.5668538858    -0.3415287964     0.0147142601
Bq         1.5613506491    -0.2933323050     0.0268308854
Bq         1.5558474124    -0.2451358137     0.0389475106
Bq         1.5503441757    -0.1969393223     0.0510641358
Bq         1.5448409390    -0.1487428310     0.0631807610
Bq         1.5393377023    -0.1005463396     0.0752973863
Bq         1.5338344657    -0.0523498482     0.0874140115
Bq         1.5283312290    -0.0041533569     0.0995306367
Bq         1.5228279923     0.0440431345     0.1116472620
Bq         2.1186760975    -4.7756060011    -1.0793385671
Bq         2.1131728609    -4.7274095098    -1.0672219419
Bq         2.1076696242    -4.6792130184    -1.0551053167
Bq         2.1021663875    -4.6310165271    -1.0429886914
Bq         2.0966631508    -4.5828200357    -1.0308720662
Bq         2.0911599141    -4.5346235444    -1.0187554410
Bq         2.0856566774    -4.4864270530    -1.0066388157
Bq         2.0801534407    -4.4382305616    -0.9945221905
Bq         2.0746502041    -4.3900340703    -0.9824055653
Bq         2.0691469674    -4.3418375789    -0.9702889401
Bq         2.0636437307    -4.2936410876    -0.9581723148
Bq         2.0581404940    -4.2454445962    -0.9460556896
Bq         2.0526372573    -4.1972481049    -0.9339390644
Bq         2.0471340206    -4.1490516135    -0.9218224391
Bq         2.0416307839    -4.1008551222    -0.9097058139
Bq         2.0361275473    -4.0526586308    -0.8975891887
Bq         2.0306243106    -4.0044621394    -0.8854725635
Bq         2.0251210739    -3.9562656481    -0.8733559382
Bq         2.0196178372    -3.9080691567    -0.8612393130
Bq         2.0141146005    -3.8598726654    -0.8491226878
Bq         2.0086113638    -3.8116761740    -0.8370060625
Bq         2.0031081271    -3.7634796827    -0.8248894373
Bq         1.9976048905    -3.7152831913    -0.8127728121
Bq         1.9921016538    -3.6670866999    -0.8006561869
Bq         1.9865984171    -3.6188902086    -0.7885395616
Bq         1.9810951804    -3.5706937172    -0.7764229364
Bq         1.9755919437    -3.5224972259    -0.7643063112
Bq         1.9700887070    -3.4743007345    -0.7521896859
Bq         1.9645854703    -3.4261042432    -0.7400730607
Bq         1.9590822337    -3.3779077518    -0.7279564355
Bq         1.9535789970    -3.3297112605    -0.7158398103
Bq         1.9480757603    -3.2815147691    -0.7037231850
Bq         1.9425725236    -3.2333182777    -0.6916065598
Bq         1.9370692869    -3.1851217864    -0.6794899346
Bq         1.9315660502    -3.1369252950    -0.6673733093
Bq         1.9260628135    -3.0887288037    -0.6552566841
Bq         1.9205595768    -3.0405323123    -0.6431400589
Bq         1.9150563402    -2.9923358210    -0.6310234336
Bq         1.9095531035    -2.9441393296    -0.6189068084
Bq         1.9040498668    -2.8959428383    -0.6067901832

1
2
3
4
5
6
7
8
9
10
11
12
13
14
15
16
17
18
19
20
21
22
23
24
25
26
27
28
29
30
31
32
33
34
35
36
37
38
39
40
41
42
43
44
45
46
47
48
49
50
51
52
53
54
55
56
57
58
59
60
61
62
63
64
65
66
67
68
69
70
71
72
73
74
75
76
77
78
79
80
81
82
83
84
85
86
87
88
89
90
91
92
93
94
95
96
97
98
99
100
101
102
103
104
105
106
107
108
109
110
111
112
113
114
115
116
117
118
119
120
121
122
123
124
125
126
127
128
129
130
131
132
133
134
135
136
137
138
139
140
141
142
143
144
145
146
147
148
149
150
151
152
153
154
155
156
157
158
159
160
161
162
163
164
165
166
167
168
169
170
171
172
173
174
175
176
177
178
179
180
181
182
183
184
185
186
187
188
189
190
191
192
193
194
195
196
197
198
199
200
201
202
203
204
205
206
207
208
209
210
211
212
213
214
215
216
217
218
219
220
221
222
223
224
225
226
227
228
229
230
231
232
233
234
235
236

