%nproc=8
%mem=1000MB
# rb3lyp/6-311+g** NMR geom=connectivity

Title

0 1
C    -4.0500558   -0.5771862    0.8136712
H    -5.0263804   -1.0082727    1.0024760
C    -3.9381552    0.6617804    0.2400876
H    -4.8252424    1.2338890   -0.0111295
C    -2.6768410    1.2433246    0.0057578
C    -1.4974121    0.5051527    0.2848253
C    -1.6508332   -0.7338728    0.9404026
H    -0.7713646   -1.2730967    1.2633753
C    -2.8898548   -1.2624035    1.1994307
H    -2.9683706   -2.2124563    1.7152676
C    -2.5773185    2.5963696   -0.4192930
H    -3.4870728    3.1412239   -0.6474055
C    -1.3741895    3.2147896   -0.4364030
H    -1.2997315    4.2742019   -0.6578144
C    -0.1719488    2.4994090   -0.1734588
C    -0.2043917    1.1018437    0.0192689
C     1.0513491    3.2042560   -0.0676222
H     1.0427344    4.2819499   -0.1896997
C     2.1942091    2.5487446    0.2579577
H     3.1168527    3.0912848    0.4334727
C     2.2216473    1.1336562    0.2934990
C     1.0486931    0.3945528    0.0302412
C     3.4483363    0.4614633    0.5573939
H     4.3095794    1.0606054    0.8334846
C     3.5427346   -0.8855926    0.4749463
H     4.4731467   -1.3939704    0.7038822
C     2.4490052   -1.6474447   -0.0196319
C     1.2150704   -1.0057258   -0.3013573
C     0.2531113   -1.7434440   -1.0216591
H    -0.6541356   -1.2535051   -1.3462847
C     0.4494193   -3.0628597   -1.3413779
H    -0.3083162   -3.5944309   -1.9054060
C     1.6251726   -3.7207967   -0.9552541
H     1.7670048   -4.7687404   -1.1927019
C     2.6109872   -3.0144177   -0.3183050
H     3.5525612   -3.4902813   -0.0646367
Bq        -2.7533078582     3.1203660152    -0.4922782447
Bq        -2.7528213810     3.1688359312    -0.5045432594
Bq        -2.7523349039     3.2173058471    -0.5168082741
Bq        -2.7518484268     3.2657757631    -0.5290732889
Bq        -2.7513619497     3.3142456791    -0.5413383036
Bq        -2.7508754726     3.3627155951    -0.5536033183
Bq        -2.7503889955     3.4111855110    -0.5658683330
Bq        -2.7499025184     3.4596554270    -0.5781333477
Bq        -2.7494160413     3.5081253430    -0.5903983624
Bq        -2.7489295642     3.5565952589    -0.6026633771
Bq        -2.7484430870     3.6050651749    -0.6149283919
Bq        -2.7479566099     3.6535350909    -0.6271934066
Bq        -2.7474701328     3.7020050068    -0.6394584213
Bq        -2.7469836557     3.7504749228    -0.6517234360
Bq        -2.7464971786     3.7989448388    -0.6639884507
Bq        -2.7460107015     3.8474147548    -0.6762534654
Bq        -2.7455242244     3.8958846707    -0.6885184801
Bq        -2.7450377473     3.9443545867    -0.7007834948
Bq        -2.7445512701     3.9928245027    -0.7130485096
Bq        -2.7440647930     4.0412944186    -0.7253135243
Bq        -2.7435783159     4.0897643346    -0.7375785390
Bq        -2.7430918388     4.1382342506    -0.7498435537
Bq        -2.7426053617     4.1867041665    -0.7621085684
Bq        -2.7421188846     4.2351740825    -0.7743735831
Bq        -2.7416324075     4.2836439985    -0.7866385978
Bq        -2.7403194028    -0.5633475985     0.4418445054
Bq        -2.7398329257    -0.5148776825     0.4295794907
Bq        -2.7393464485    -0.4664077665     0.4173144760
Bq        -2.7388599714    -0.4179378506     0.4050494613
Bq        -2.7383734943    -0.3694679346     0.3927844466
Bq        -2.7378870172    -0.3209980186     0.3805194319
Bq        -2.7374005401    -0.2725281027     0.3682544172
Bq        -2.7369140630    -0.2240581867     0.3559894025
Bq        -2.7364275859    -0.1755882707     0.3437243877
Bq        -2.7359411088    -0.1271183548     0.3314593730
Bq        -2.7354546317    -0.0786484388     0.3191943583
Bq        -2.7349681545    -0.0301785228     0.3069293436
Bq        -2.7344816774     0.0182913932     0.2946643289
Bq        -2.7339952003     0.0667613091     0.2823993142
Bq        -2.7335087232     0.1152312251     0.2701342995
Bq        -2.7330222461     0.1637011411     0.2578692847
Bq        -2.7325357690     0.2121710570     0.2456042700
Bq        -2.7320492919     0.2606409730     0.2333392553
Bq        -2.7315628148     0.3091108890     0.2210742406
Bq        -2.7310763376     0.3575808049     0.2088092259
Bq        -2.7305898605     0.4060507209     0.1965442112
Bq        -2.7301033834     0.4545206369     0.1842791965
Bq        -2.7296169063     0.5029905529     0.1720141817
Bq        -2.7291304292     0.5514604688     0.1597491670
Bq        -2.7286439521     0.5999303848     0.1474841523
Bq        -2.7281574750     0.6484003008     0.1352191376
Bq        -2.7276709979     0.6968702167     0.1229541229
Bq        -2.7271845207     0.7453401327     0.1106891082
Bq        -2.7266980436     0.7938100487     0.0984240935
Bq        -2.7262115665     0.8422799646     0.0861590788
Bq        -2.7257250894     0.8907498806     0.0738940640
Bq        -2.7252386123     0.9392197966     0.0616290493
Bq        -2.7247521352     0.9876897125     0.0493640346
Bq        -2.7242656581     1.0361596285     0.0370990199
Bq        -2.7237791810     1.0846295445     0.0248340052
Bq        -2.7232927038     1.1330994605     0.0125689905
Bq        -2.7228062267     1.1815693764     0.0003039758
Bq        -2.7223197496     1.2300392924    -0.0119610390
Bq        -2.7218332725     1.2785092084    -0.0242260537
Bq        -2.7213467954     1.3269791243    -0.0364910684
Bq        -2.7208603183     1.3754490403    -0.0487560831
Bq        -2.7203738412     1.4239189563    -0.0610210978
Bq        -2.7198873641     1.4723888722    -0.0732861125
Bq        -2.7194008869     1.5208587882    -0.0855511272
Bq        -2.7189144098     1.5693287042    -0.0978161420
Bq        -2.7184279327     1.6177986202    -0.1100811567
Bq        -2.7179414556     1.6662685361    -0.1223461714
Bq        -2.7174549785     1.7147384521    -0.1346111861
Bq        -2.7169685014     1.7632083681    -0.1468762008
Bq        -2.7164820243     1.8116782840    -0.1591412155
Bq        -2.7159955472     1.8601482000    -0.1714062302
Bq        -2.7155090700     1.9086181160    -0.1836712449
Bq        -2.7150225929     1.9570880319    -0.1959362597
Bq        -2.7145361158     2.0055579479    -0.2082012744
Bq        -2.7140496387     2.0540278639    -0.2204662891
Bq        -2.7135631616     2.1024977798    -0.2327313038
Bq        -2.7130766845     2.1509676958    -0.2449963185
Bq        -2.7125902074     2.1994376118    -0.2572613332
Bq        -2.7121037303     2.2479075278    -0.2695263479
Bq        -2.7116172532     2.2963774437    -0.2817913627
Bq        -2.7111307760     2.3448473597    -0.2940563774
Bq        -2.7106442989     2.3933172757    -0.3063213921
Bq        -2.7101578218     2.4417871916    -0.3185864068
Bq        -2.7096713447     2.4902571076    -0.3308514215
Bq        -2.7091848676     2.5387270236    -0.3431164362
Bq        -2.7086983905     2.5871969395    -0.3553814509
Bq        -2.7082119134     2.6356668555    -0.3676464656
Bq        -2.7077254363     2.6841367715    -0.3799114804
Bq        -2.7072389591     2.7326066875    -0.3921764951
Bq        -2.7067524820     2.7810766034    -0.4044415098
Bq        -2.7062660049     2.8295465194    -0.4167065245
Bq        -2.7057795278     2.8780164354    -0.4289715392
Bq        -2.7052930507     2.9264863513    -0.4412365539
Bq        -2.7048065736     2.9749562673    -0.4535015686
Bq        -2.7043200965     3.0234261833    -0.4657665834
Bq        -2.7038336194     3.0718960992    -0.4780315981
Bq        -2.7033471422     3.1203660152    -0.4902966128
Bq        -2.7028606651     3.1688359312    -0.5025616275
Bq        -2.7023741880     3.2173058471    -0.5148266422
Bq        -2.7018877109     3.2657757631    -0.5270916569
Bq        -2.7014012338     3.3142456791    -0.5393566716
Bq        -2.7009147567     3.3627155951    -0.5516216864
Bq        -2.7004282796     3.4111855110    -0.5638867011
Bq        -2.6999418025     3.4596554270    -0.5761517158
Bq        -2.6994553253     3.5081253430    -0.5884167305
Bq        -2.6989688482     3.5565952589    -0.6006817452
Bq        -2.6984823711     3.6050651749    -0.6129467599
Bq        -2.6979958940     3.6535350909    -0.6252117746
Bq        -2.6975094169     3.7020050068    -0.6374767893
Bq        -2.6970229398     3.7504749228    -0.6497418041
Bq        -2.6965364627     3.7989448388    -0.6620068188
Bq        -2.6960499856     3.8474147548    -0.6742718335
Bq        -2.6955635084     3.8958846707    -0.6865368482
Bq        -2.6950770313     3.9443545867    -0.6988018629
Bq        -2.6945905542     3.9928245027    -0.7110668776
Bq        -2.6941040771     4.0412944186    -0.7233318923
Bq        -2.6936176000     4.0897643346    -0.7355969071
Bq        -2.6931311229     4.1382342506    -0.7478619218
Bq        -2.6926446458     4.1867041665    -0.7601269365
Bq        -2.6921581687     4.2351740825    -0.7723919512
Bq        -2.6916716916     4.2836439985    -0.7846569659
Bq        -2.6903586869    -0.5633475985     0.4438261374
Bq        -2.6898722097    -0.5148776825     0.4315611227
Bq        -2.6893857326    -0.4664077665     0.4192961080
Bq        -2.6888992555    -0.4179378506     0.4070310932
Bq        -2.6884127784    -0.3694679346     0.3947660785
Bq        -2.6879263013    -0.3209980186     0.3825010638
Bq        -2.6874398242    -0.2725281027     0.3702360491
Bq        -2.6869533471    -0.2240581867     0.3579710344
Bq        -2.6864668700    -0.1755882707     0.3457060197
Bq        -2.6859803928    -0.1271183548     0.3334410050
Bq        -2.6854939157    -0.0786484388     0.3211759902
Bq        -2.6850074386    -0.0301785228     0.3089109755
Bq        -2.6845209615     0.0182913932     0.2966459608
Bq        -2.6840344844     0.0667613091     0.2843809461
Bq        -2.6835480073     0.1152312251     0.2721159314
Bq        -2.6830615302     0.1637011411     0.2598509167
Bq        -2.6825750531     0.2121710570     0.2475859020
Bq        -2.6820885759     0.2606409730     0.2353208872
Bq        -2.6816020988     0.3091108890     0.2230558725
Bq        -2.6811156217     0.3575808049     0.2107908578
Bq        -2.6806291446     0.4060507209     0.1985258431
Bq        -2.6801426675     0.4545206369     0.1862608284
Bq        -2.6796561904     0.5029905529     0.1739958137
Bq        -2.6791697133     0.5514604688     0.1617307990
Bq        -2.6786832362     0.5999303848     0.1494657843
Bq        -2.6781967591     0.6484003008     0.1372007695
Bq        -2.6777102819     0.6968702167     0.1249357548
Bq        -2.6772238048     0.7453401327     0.1126707401
Bq        -2.6767373277     0.7938100487     0.1004057254
Bq        -2.6762508506     0.8422799646     0.0881407107
Bq        -2.6757643735     0.8907498806     0.0758756960
Bq        -2.6752778964     0.9392197966     0.0636106813
Bq        -2.6747914193     0.9876897125     0.0513456665
Bq        -2.6743049422     1.0361596285     0.0390806518
Bq        -2.6738184650     1.0846295445     0.0268156371
Bq        -2.6733319879     1.1330994605     0.0145506224
Bq        -2.6728455108     1.1815693764     0.0022856077
Bq        -2.6723590337     1.2300392924    -0.0099794070
Bq        -2.6718725566     1.2785092084    -0.0222444217
Bq        -2.6713860795     1.3269791243    -0.0345094365
Bq        -2.6708996024     1.3754490403    -0.0467744512
Bq        -2.6704131253     1.4239189563    -0.0590394659
Bq        -2.6699266481     1.4723888722    -0.0713044806
Bq        -2.6694401710     1.5208587882    -0.0835694953
Bq        -2.6689536939     1.5693287042    -0.0958345100
Bq        -2.6684672168     1.6177986202    -0.1080995247
Bq        -2.6679807397     1.6662685361    -0.1203645394
Bq        -2.6674942626     1.7147384521    -0.1326295542
Bq        -2.6670077855     1.7632083681    -0.1448945689
Bq        -2.6665213084     1.8116782840    -0.1571595836
Bq        -2.6660348312     1.8601482000    -0.1694245983
Bq        -2.6655483541     1.9086181160    -0.1816896130
Bq        -2.6650618770     1.9570880319    -0.1939546277
Bq        -2.6645753999     2.0055579479    -0.2062196424
Bq        -2.6640889228     2.0540278639    -0.2184846572
Bq        -2.6636024457     2.1024977798    -0.2307496719
Bq        -2.6631159686     2.1509676958    -0.2430146866
Bq        -2.6626294915     2.1994376118    -0.2552797013
Bq        -2.6621430143     2.2479075278    -0.2675447160
Bq        -2.6616565372     2.2963774437    -0.2798097307
Bq        -2.6611700601     2.3448473597    -0.2920747454
Bq        -2.6606835830     2.3933172757    -0.3043397602
Bq        -2.6601971059     2.4417871916    -0.3166047749
Bq        -2.6597106288     2.4902571076    -0.3288697896
Bq        -2.6592241517     2.5387270236    -0.3411348043
Bq        -2.6587376746     2.5871969395    -0.3533998190
Bq        -2.6582511974     2.6356668555    -0.3656648337
Bq        -2.6577647203     2.6841367715    -0.3779298484
Bq        -2.6572782432     2.7326066875    -0.3901948631
Bq        -2.6567917661     2.7810766034    -0.4024598779
Bq        -2.6563052890     2.8295465194    -0.4147248926
Bq        -2.6558188119     2.8780164354    -0.4269899073
Bq        -2.6553323348     2.9264863513    -0.4392549220
Bq        -2.6548458577     2.9749562673    -0.4515199367

1
2
3
4
5
6
7
8
9
10
11
12
13
14
15
16
17
18
19
20
21
22
23
24
25
26
27
28
29
30
31
32
33
34
35
36
37
38
39
40
41
42
43
44
45
46
47
48
49
50
51
52
53
54
55
56
57
58
59
60
61
62
63
64
65
66
67
68
69
70
71
72
73
74
75
76
77
78
79
80
81
82
83
84
85
86
87
88
89
90
91
92
93
94
95
96
97
98
99
100
101
102
103
104
105
106
107
108
109
110
111
112
113
114
115
116
117
118
119
120
121
122
123
124
125
126
127
128
129
130
131
132
133
134
135
136
137
138
139
140
141
142
143
144
145
146
147
148
149
150
151
152
153
154
155
156
157
158
159
160
161
162
163
164
165
166
167
168
169
170
171
172
173
174
175
176
177
178
179
180
181
182
183
184
185
186
187
188
189
190
191
192
193
194
195
196
197
198
199
200
201
202
203
204
205
206
207
208
209
210
211
212
213
214
215
216
217
218
219
220
221
222
223
224
225
226
227
228
229
230
231
232
233
234
235
236

