%nproc=8
%mem=1000MB
# rb3lyp/6-311+g** NMR geom=connectivity

Title

0 1
C    -4.0500558   -0.5771862    0.8136712
H    -5.0263804   -1.0082727    1.0024760
C    -3.9381552    0.6617804    0.2400876
H    -4.8252424    1.2338890   -0.0111295
C    -2.6768410    1.2433246    0.0057578
C    -1.4974121    0.5051527    0.2848253
C    -1.6508332   -0.7338728    0.9404026
H    -0.7713646   -1.2730967    1.2633753
C    -2.8898548   -1.2624035    1.1994307
H    -2.9683706   -2.2124563    1.7152676
C    -2.5773185    2.5963696   -0.4192930
H    -3.4870728    3.1412239   -0.6474055
C    -1.3741895    3.2147896   -0.4364030
H    -1.2997315    4.2742019   -0.6578144
C    -0.1719488    2.4994090   -0.1734588
C    -0.2043917    1.1018437    0.0192689
C     1.0513491    3.2042560   -0.0676222
H     1.0427344    4.2819499   -0.1896997
C     2.1942091    2.5487446    0.2579577
H     3.1168527    3.0912848    0.4334727
C     2.2216473    1.1336562    0.2934990
C     1.0486931    0.3945528    0.0302412
C     3.4483363    0.4614633    0.5573939
H     4.3095794    1.0606054    0.8334846
C     3.5427346   -0.8855926    0.4749463
H     4.4731467   -1.3939704    0.7038822
C     2.4490052   -1.6474447   -0.0196319
C     1.2150704   -1.0057258   -0.3013573
C     0.2531113   -1.7434440   -1.0216591
H    -0.6541356   -1.2535051   -1.3462847
C     0.4494193   -3.0628597   -1.3413779
H    -0.3083162   -3.5944309   -1.9054060
C     1.6251726   -3.7207967   -0.9552541
H     1.7670048   -4.7687404   -1.1927019
C     2.6109872   -3.0144177   -0.3183050
H     3.5525612   -3.4902813   -0.0646367
Bq         2.5108787102    -3.4261042432    -0.4919527349
Bq         2.5053754735    -3.3779077518    -0.4798361097
Bq         2.4998722368    -3.3297112605    -0.4677194845
Bq         2.4943690002    -3.2815147691    -0.4556028593
Bq         2.4888657635    -3.2333182777    -0.4434862340
Bq         2.4833625268    -3.1851217864    -0.4313696088
Bq         2.4778592901    -3.1369252950    -0.4192529836
Bq         2.4723560534    -3.0887288037    -0.4071363583
Bq         2.4668528167    -3.0405323123    -0.3950197331
Bq         2.4613495800    -2.9923358210    -0.3829031079
Bq         2.4558463434    -2.9441393296    -0.3707864827
Bq         2.4503431067    -2.8959428383    -0.3586698574
Bq         2.4448398700    -2.8477463469    -0.3465532322
Bq         2.4393366333    -2.7995498555    -0.3344366070
Bq         2.4338333966    -2.7513533642    -0.3223199817
Bq         2.4283301599    -2.7031568728    -0.3102033565
Bq         2.4228269232    -2.6549603815    -0.2980867313
Bq         2.4173236866    -2.6067638901    -0.2859701060
Bq         2.4118204499    -2.5585673988    -0.2738534808
Bq         2.4063172132    -2.5103709074    -0.2617368556
Bq         2.4008139765    -2.4621744160    -0.2496202304
Bq         2.3953107398    -2.4139779247    -0.2375036051
Bq         2.3898075031    -2.3657814333    -0.2253869799
Bq         2.3843042664    -2.3175849420    -0.2132703547
Bq         2.3788010298    -2.2693884506    -0.2011537294
Bq         2.3732977931    -2.2211919593    -0.1890371042
Bq         2.3677945564    -2.1729954679    -0.1769204790
Bq         2.3622913197    -2.1247989766    -0.1648038538
Bq         2.3567880830    -2.0766024852    -0.1526872285
Bq         2.3512848463    -2.0284059938    -0.1405706033
Bq         2.3457816096    -1.9802095025    -0.1284539781
Bq         2.3402783730    -1.9320130111    -0.1163373528
Bq         2.3347751363    -1.8838165198    -0.1042207276
Bq         2.3292718996    -1.8356200284    -0.0921041024
Bq         2.3237686629    -1.7874235371    -0.0799874772
Bq         2.3182654262    -1.7392270457    -0.0678708519
Bq         2.3127621895    -1.6910305543    -0.0557542267
Bq         2.3072589528    -1.6428340630    -0.0436376015
Bq         2.3017557161    -1.5946375716    -0.0315209762
Bq         2.2962524795    -1.5464410803    -0.0194043510
Bq         2.2907492428    -1.4982445889    -0.0072877258
Bq         2.2852460061    -1.4500480976     0.0048288994
Bq         2.2797427694    -1.4018516062     0.0169455247
Bq         2.2742395327    -1.3536551149     0.0290621499
Bq         2.2687362960    -1.3054586235     0.0411787751
Bq         2.2632330593    -1.2572621321     0.0532954004
Bq         2.2577298227    -1.2090656408     0.0654120256
Bq         2.2522265860    -1.1608691494     0.0775286508
Bq         2.2467233493    -1.1126726581     0.0896452761
Bq         2.2412201126    -1.0644761667     0.1017619013
Bq         2.2357168759    -1.0162796754     0.1138785265
Bq         2.2302136392    -0.9680831840     0.1259951517
Bq         2.2247104025    -0.9198866927     0.1381117770
Bq         2.2192071659    -0.8716902013     0.1502284022
Bq         2.2137039292    -0.8234937099     0.1623450274
Bq         2.2082006925    -0.7752972186     0.1744616527
Bq         2.2026974558    -0.7271007272     0.1865782779
Bq         2.1971942191    -0.6789042359     0.1986949031
Bq         2.1916909824    -0.6307077445     0.2108115283
Bq         2.1861877457    -0.5825112532     0.2229281536
Bq         2.1806845091    -0.5343147618     0.2350447788
Bq         2.1751812724    -0.4861182704     0.2471614040
Bq         2.1696780357    -0.4379217791     0.2592780293
Bq         2.1641747990    -0.3897252877     0.2713946545
Bq         2.1586715623    -0.3415287964     0.2835112797
Bq         2.1531683256    -0.2933323050     0.2956279049
Bq         2.1476650889    -0.2451358137     0.3077445302
Bq         2.1421618523    -0.1969393223     0.3198611554
Bq         2.1366586156    -0.1487428310     0.3319777806
Bq         2.1311553789    -0.1005463396     0.3440944059
Bq         2.1256521422    -0.0523498482     0.3562110311
Bq         2.1201489055    -0.0041533569     0.3683276563
Bq         2.1146456688     0.0440431345     0.3804442815
Bq         2.7104937741    -4.7756060011    -0.8105415475
Bq         2.7049905374    -4.7274095098    -0.7984249223
Bq         2.6994873007    -4.6792130184    -0.7863082971
Bq         2.6939840640    -4.6310165271    -0.7741916719
Bq         2.6884808273    -4.5828200357    -0.7620750466
Bq         2.6829775907    -4.5346235444    -0.7499584214
Bq         2.6774743540    -4.4864270530    -0.7378417962
Bq         2.6719711173    -4.4382305616    -0.7257251709
Bq         2.6664678806    -4.3900340703    -0.7136085457
Bq         2.6609646439    -4.3418375789    -0.7014919205
Bq         2.6554614072    -4.2936410876    -0.6893752952
Bq         2.6499581705    -4.2454445962    -0.6772586700
Bq         2.6444549339    -4.1972481049    -0.6651420448
Bq         2.6389516972    -4.1490516135    -0.6530254196
Bq         2.6334484605    -4.1008551222    -0.6409087943
Bq         2.6279452238    -4.0526586308    -0.6287921691
Bq         2.6224419871    -4.0044621394    -0.6166755439
Bq         2.6169387504    -3.9562656481    -0.6045589186
Bq         2.6114355137    -3.9080691567    -0.5924422934
Bq         2.6059322770    -3.8598726654    -0.5803256682
Bq         2.6004290404    -3.8116761740    -0.5682090430
Bq         2.5949258037    -3.7634796827    -0.5560924177
Bq         2.5894225670    -3.7152831913    -0.5439757925
Bq         2.5839193303    -3.6670866999    -0.5318591673
Bq         2.5784160936    -3.6188902086    -0.5197425420
Bq         2.5729128569    -3.5706937172    -0.5076259168
Bq         2.5674096202    -3.5224972259    -0.4955092916
Bq         2.5619063836    -3.4743007345    -0.4833926664
Bq         2.5564031469    -3.4261042432    -0.4712760411
Bq         2.5508999102    -3.3779077518    -0.4591594159
Bq         2.5453966735    -3.3297112605    -0.4470427907
Bq         2.5398934368    -3.2815147691    -0.4349261654
Bq         2.5343902001    -3.2333182777    -0.4228095402
Bq         2.5288869634    -3.1851217864    -0.4106929150
Bq         2.5233837268    -3.1369252950    -0.3985762898
Bq         2.5178804901    -3.0887288037    -0.3864596645
Bq         2.5123772534    -3.0405323123    -0.3743430393
Bq         2.5068740167    -2.9923358210    -0.3622264141
Bq         2.5013707800    -2.9441393296    -0.3501097888
Bq         2.4958675433    -2.8959428383    -0.3379931636
Bq         2.4903643066    -2.8477463469    -0.3258765384
Bq         2.4848610700    -2.7995498555    -0.3137599131
Bq         2.4793578333    -2.7513533642    -0.3016432879
Bq         2.4738545966    -2.7031568728    -0.2895266627
Bq         2.4683513599    -2.6549603815    -0.2774100375
Bq         2.4628481232    -2.6067638901    -0.2652934122
Bq         2.4573448865    -2.5585673988    -0.2531767870
Bq         2.4518416498    -2.5103709074    -0.2410601618
Bq         2.4463384132    -2.4621744160    -0.2289435365
Bq         2.4408351765    -2.4139779247    -0.2168269113
Bq         2.4353319398    -2.3657814333    -0.2047102861
Bq         2.4298287031    -2.3175849420    -0.1925936609
Bq         2.4243254664    -2.2693884506    -0.1804770356
Bq         2.4188222297    -2.2211919593    -0.1683604104
Bq         2.4133189930    -2.1729954679    -0.1562437852
Bq         2.4078157564    -2.1247989766    -0.1441271599
Bq         2.4023125197    -2.0766024852    -0.1320105347
Bq         2.3968092830    -2.0284059938    -0.1198939095
Bq         2.3913060463    -1.9802095025    -0.1077772843
Bq         2.3858028096    -1.9320130111    -0.0956606590
Bq         2.3802995729    -1.8838165198    -0.0835440338
Bq         2.3747963362    -1.8356200284    -0.0714274086
Bq         2.3692930995    -1.7874235371    -0.0593107833
Bq         2.3637898629    -1.7392270457    -0.0471941581
Bq         2.3582866262    -1.6910305543    -0.0350775329
Bq         2.3527833895    -1.6428340630    -0.0229609077
Bq         2.3472801528    -1.5946375716    -0.0108442824
Bq         2.3417769161    -1.5464410803     0.0012723428
Bq         2.3362736794    -1.4982445889     0.0133889680
Bq         2.3307704427    -1.4500480976     0.0255055933
Bq         2.3252672061    -1.4018516062     0.0376222185
Bq         2.3197639694    -1.3536551149     0.0497388437
Bq         2.3142607327    -1.3054586235     0.0618554689
Bq         2.3087574960    -1.2572621321     0.0739720942
Bq         2.3032542593    -1.2090656408     0.0860887194
Bq         2.2977510226    -1.1608691494     0.0982053446
Bq         2.2922477859    -1.1126726581     0.1103219699
Bq         2.2867445493    -1.0644761667     0.1224385951
Bq         2.2812413126    -1.0162796754     0.1345552203
Bq         2.2757380759    -0.9680831840     0.1466718456
Bq         2.2702348392    -0.9198866927     0.1587884708
Bq         2.2647316025    -0.8716902013     0.1709050960
Bq         2.2592283658    -0.8234937099     0.1830217212
Bq         2.2537251291    -0.7752972186     0.1951383465
Bq         2.2482218925    -0.7271007272     0.2072549717
Bq         2.2427186558    -0.6789042359     0.2193715969
Bq         2.2372154191    -0.6307077445     0.2314882222
Bq         2.2317121824    -0.5825112532     0.2436048474
Bq         2.2262089457    -0.5343147618     0.2557214726
Bq         2.2207057090    -0.4861182704     0.2678380978
Bq         2.2152024723    -0.4379217791     0.2799547231
Bq         2.2096992357    -0.3897252877     0.2920713483
Bq         2.2041959990    -0.3415287964     0.3041879735
Bq         2.1986927623    -0.2933323050     0.3163045988
Bq         2.1931895256    -0.2451358137     0.3284212240
Bq         2.1876862889    -0.1969393223     0.3405378492
Bq         2.1821830522    -0.1487428310     0.3526544744
Bq         2.1766798155    -0.1005463396     0.3647710997
Bq         2.1711765789    -0.0523498482     0.3768877249
Bq         2.1656733422    -0.0041533569     0.3890043501
Bq         2.1601701055     0.0440431345     0.4011209754
Bq         2.7560182107    -4.7756060011    -0.7898648537
Bq         2.7505149741    -4.7274095098    -0.7777482285
Bq         2.7450117374    -4.6792130184    -0.7656316033
Bq         2.7395085007    -4.6310165271    -0.7535149780
Bq         2.7340052640    -4.5828200357    -0.7413983528
Bq         2.7285020273    -4.5346235444    -0.7292817276
Bq         2.7229987906    -4.4864270530    -0.7171651024
Bq         2.7174955539    -4.4382305616    -0.7050484771
Bq         2.7119923173    -4.3900340703    -0.6929318519
Bq         2.7064890806    -4.3418375789    -0.6808152267
Bq         2.7009858439    -4.2936410876    -0.6686986014
Bq         2.6954826072    -4.2454445962    -0.6565819762
Bq         2.6899793705    -4.1972481049    -0.6444653510
Bq         2.6844761338    -4.1490516135    -0.6323487257
Bq         2.6789728971    -4.1008551222    -0.6202321005
Bq         2.6734696605    -4.0526586308    -0.6081154753
Bq         2.6679664238    -4.0044621394    -0.5959988501
Bq         2.6624631871    -3.9562656481    -0.5838822248
Bq         2.6569599504    -3.9080691567    -0.5717655996
Bq         2.6514567137    -3.8598726654    -0.5596489744
Bq         2.6459534770    -3.8116761740    -0.5475323491
Bq         2.6404502403    -3.7634796827    -0.5354157239
Bq         2.6349470036    -3.7152831913    -0.5232990987
Bq         2.6294437670    -3.6670866999    -0.5111824735
Bq         2.6239405303    -3.6188902086    -0.4990658482
Bq         2.6184372936    -3.5706937172    -0.4869492230

1
2
3
4
5
6
7
8
9
10
11
12
13
14
15
16
17
18
19
20
21
22
23
24
25
26
27
28
29
30
31
32
33
34
35
36
37
38
39
40
41
42
43
44
45
46
47
48
49
50
51
52
53
54
55
56
57
58
59
60
61
62
63
64
65
66
67
68
69
70
71
72
73
74
75
76
77
78
79
80
81
82
83
84
85
86
87
88
89
90
91
92
93
94
95
96
97
98
99
100
101
102
103
104
105
106
107
108
109
110
111
112
113
114
115
116
117
118
119
120
121
122
123
124
125
126
127
128
129
130
131
132
133
134
135
136
137
138
139
140
141
142
143
144
145
146
147
148
149
150
151
152
153
154
155
156
157
158
159
160
161
162
163
164
165
166
167
168
169
170
171
172
173
174
175
176
177
178
179
180
181
182
183
184
185
186
187
188
189
190
191
192
193
194
195
196
197
198
199
200
201
202
203
204
205
206
207
208
209
210
211
212
213
214
215
216
217
218
219
220
221
222
223
224
225
226
227
228
229
230
231
232
233
234
235
236

