%nproc=8
%mem=1000MB
# rb3lyp/6-311+g** NMR geom=connectivity

Title

0 1
C    -4.0500558   -0.5771862    0.8136712
H    -5.0263804   -1.0082727    1.0024760
C    -3.9381552    0.6617804    0.2400876
H    -4.8252424    1.2338890   -0.0111295
C    -2.6768410    1.2433246    0.0057578
C    -1.4974121    0.5051527    0.2848253
C    -1.6508332   -0.7338728    0.9404026
H    -0.7713646   -1.2730967    1.2633753
C    -2.8898548   -1.2624035    1.1994307
H    -2.9683706   -2.2124563    1.7152676
C    -2.5773185    2.5963696   -0.4192930
H    -3.4870728    3.1412239   -0.6474055
C    -1.3741895    3.2147896   -0.4364030
H    -1.2997315    4.2742019   -0.6578144
C    -0.1719488    2.4994090   -0.1734588
C    -0.2043917    1.1018437    0.0192689
C     1.0513491    3.2042560   -0.0676222
H     1.0427344    4.2819499   -0.1896997
C     2.1942091    2.5487446    0.2579577
H     3.1168527    3.0912848    0.4334727
C     2.2216473    1.1336562    0.2934990
C     1.0486931    0.3945528    0.0302412
C     3.4483363    0.4614633    0.5573939
H     4.3095794    1.0606054    0.8334846
C     3.5427346   -0.8855926    0.4749463
H     4.4731467   -1.3939704    0.7038822
C     2.4490052   -1.6474447   -0.0196319
C     1.2150704   -1.0057258   -0.3013573
C     0.2531113   -1.7434440   -1.0216591
H    -0.6541356   -1.2535051   -1.3462847
C     0.4494193   -3.0628597   -1.3413779
H    -0.3083162   -3.5944309   -1.9054060
C     1.6251726   -3.7207967   -0.9552541
H     1.7670048   -4.7687404   -1.1927019
C     2.6109872   -3.0144177   -0.3183050
H     3.5525612   -3.4902813   -0.0646367
Bq        -1.3837801369     4.2108448857    -0.4117872911
Bq        -1.3834240699     4.2607844934    -0.4142180935
Bq        -1.3830680030     4.3107241011    -0.4166488959
Bq        -1.3692026381    -0.6832366678    -0.1663219281
Bq        -1.3688465712    -0.6332970601    -0.1687527305
Bq        -1.3684905042    -0.5833574524    -0.1711835329
Bq        -1.3681344372    -0.5334178447    -0.1736143353
Bq        -1.3677783702    -0.4834782370    -0.1760451376
Bq        -1.3674223033    -0.4335386293    -0.1784759400
Bq        -1.3670662363    -0.3835990216    -0.1809067424
Bq        -1.3667101693    -0.3336594139    -0.1833375448
Bq        -1.3663541024    -0.2837198063    -0.1857683472
Bq        -1.3659980354    -0.2337801986    -0.1881991496
Bq        -1.3656419684    -0.1838405909    -0.1906299519
Bq        -1.3652859014    -0.1339009832    -0.1930607543
Bq        -1.3649298345    -0.0839613755    -0.1954915567
Bq        -1.3645737675    -0.0340217678    -0.1979223591
Bq        -1.3642177005     0.0159178399    -0.2003531615
Bq        -1.3638616336     0.0658574476    -0.2027839639
Bq        -1.3635055666     0.1157970553    -0.2052147662
Bq        -1.3631494996     0.1657366629    -0.2076455686
Bq        -1.3627934327     0.2156762706    -0.2100763710
Bq        -1.3624373657     0.2656158783    -0.2125071734
Bq        -1.3620812987     0.3155554860    -0.2149379758
Bq        -1.3617252317     0.3654950937    -0.2173687782
Bq        -1.3613691648     0.4154347014    -0.2197995805
Bq        -1.3610130978     0.4653743091    -0.2222303829
Bq        -1.3606570308     0.5153139168    -0.2246611853
Bq        -1.3603009639     0.5652535245    -0.2270919877
Bq        -1.3599448969     0.6151931321    -0.2295227901
Bq        -1.3595888299     0.6651327398    -0.2319535925
Bq        -1.3592327629     0.7150723475    -0.2343843948
Bq        -1.3588766960     0.7650119552    -0.2368151972
Bq        -1.3585206290     0.8149515629    -0.2392459996
Bq        -1.3581645620     0.8648911706    -0.2416768020
Bq        -1.3578084951     0.9148307783    -0.2441076044
Bq        -1.3574524281     0.9647703860    -0.2465384068
Bq        -1.3570963611     1.0147099936    -0.2489692091
Bq        -1.3567402941     1.0646496013    -0.2514000115
Bq        -1.3563842272     1.1145892090    -0.2538308139
Bq        -1.3560281602     1.1645288167    -0.2562616163
Bq        -1.3556720932     1.2144684244    -0.2586924187
Bq        -1.3553160263     1.2644080321    -0.2611232211
Bq        -1.3549599593     1.3143476398    -0.2635540234
Bq        -1.3546038923     1.3642872475    -0.2659848258
Bq        -1.3542478254     1.4142268552    -0.2684156282
Bq        -1.3538917584     1.4641664628    -0.2708464306
Bq        -1.3535356914     1.5141060705    -0.2732772330
Bq        -1.3531796244     1.5640456782    -0.2757080354
Bq        -1.3528235575     1.6139852859    -0.2781388377
Bq        -1.3524674905     1.6639248936    -0.2805696401
Bq        -1.3521114235     1.7138645013    -0.2830004425
Bq        -1.3517553566     1.7638041090    -0.2854312449
Bq        -1.3513992896     1.8137437167    -0.2878620473
Bq        -1.3510432226     1.8636833244    -0.2902928497
Bq        -1.3506871556     1.9136229320    -0.2927236520
Bq        -1.3503310887     1.9635625397    -0.2951544544
Bq        -1.3499750217     2.0135021474    -0.2975852568
Bq        -1.3496189547     2.0634417551    -0.3000160592
Bq        -1.3492628878     2.1133813628    -0.3024468616
Bq        -1.3489068208     2.1633209705    -0.3048776640
Bq        -1.3485507538     2.2132605782    -0.3073084663
Bq        -1.3481946868     2.2632001859    -0.3097392687
Bq        -1.3478386199     2.3131397936    -0.3121700711
Bq        -1.3474825529     2.3630794012    -0.3146008735
Bq        -1.3471264859     2.4130190089    -0.3170316759
Bq        -1.3467704190     2.4629586166    -0.3194624783
Bq        -1.3464143520     2.5128982243    -0.3218932806
Bq        -1.3460582850     2.5628378320    -0.3243240830
Bq        -1.3457022181     2.6127774397    -0.3267548854
Bq        -1.3453461511     2.6627170474    -0.3291856878
Bq        -1.3449900841     2.7126566551    -0.3316164902
Bq        -1.3446340171     2.7625962627    -0.3340472926
Bq        -1.3442779502     2.8125358704    -0.3364780949
Bq        -1.3439218832     2.8624754781    -0.3389088973
Bq        -1.3435658162     2.9124150858    -0.3413396997
Bq        -1.3432097493     2.9623546935    -0.3437705021
Bq        -1.3428536823     3.0122943012    -0.3462013045
Bq        -1.3424976153     3.0622339089    -0.3486321068
Bq        -1.3421415483     3.1121735166    -0.3510629092
Bq        -1.3417854814     3.1621131243    -0.3534937116
Bq        -1.3414294144     3.2120527319    -0.3559245140
Bq        -1.3410733474     3.2619923396    -0.3583553164
Bq        -1.3407172805     3.3119319473    -0.3607861188
Bq        -1.3403612135     3.3618715550    -0.3632169211
Bq        -1.3400051465     3.4118111627    -0.3656477235
Bq        -1.3396490795     3.4617507704    -0.3680785259
Bq        -1.3392930126     3.5116903781    -0.3705093283
Bq        -1.3389369456     3.5616299858    -0.3729401307
Bq        -1.3385808786     3.6115695935    -0.3753709331
Bq        -1.3382248117     3.6615092011    -0.3778017354
Bq        -1.3378687447     3.7114488088    -0.3802325378
Bq        -1.3375126777     3.7613884165    -0.3826633402
Bq        -1.3371566108     3.8113280242    -0.3850941426
Bq        -1.3368005438     3.8612676319    -0.3875249450
Bq        -1.3364444768     3.9112072396    -0.3899557474
Bq        -1.3360884098     3.9611468473    -0.3923865497
Bq        -1.3357323429     4.0110864550    -0.3948173521
Bq        -1.3353762759     4.0610260627    -0.3972481545
Bq        -1.3350202089     4.1109656703    -0.3996789569
Bq        -1.3346641420     4.1609052780    -0.4021097593
Bq        -1.3343080750     4.2108448857    -0.4045405617
Bq        -1.3339520080     4.2607844934    -0.4069713640
Bq        -1.3335959410     4.3107241011    -0.4094021664
Bq        -1.3197305762    -0.6832366678    -0.1590751986
Bq        -1.3193745092    -0.6332970601    -0.1615060010
Bq        -1.3190184422    -0.5833574524    -0.1639368034
Bq        -1.3186623753    -0.5334178447    -0.1663676058
Bq        -1.3183063083    -0.4834782370    -0.1687984082
Bq        -1.3179502413    -0.4335386293    -0.1712292106
Bq        -1.3175941744    -0.3835990216    -0.1736600129
Bq        -1.3172381074    -0.3336594139    -0.1760908153
Bq        -1.3168820404    -0.2837198063    -0.1785216177
Bq        -1.3165259735    -0.2337801986    -0.1809524201
Bq        -1.3161699065    -0.1838405909    -0.1833832225
Bq        -1.3158138395    -0.1339009832    -0.1858140249
Bq        -1.3154577725    -0.0839613755    -0.1882448272
Bq        -1.3151017056    -0.0340217678    -0.1906756296
Bq        -1.3147456386     0.0159178399    -0.1931064320
Bq        -1.3143895716     0.0658574476    -0.1955372344
Bq        -1.3140335047     0.1157970553    -0.1979680368
Bq        -1.3136774377     0.1657366629    -0.2003988392
Bq        -1.3133213707     0.2156762706    -0.2028296415
Bq        -1.3129653037     0.2656158783    -0.2052604439
Bq        -1.3126092368     0.3155554860    -0.2076912463
Bq        -1.3122531698     0.3654950937    -0.2101220487
Bq        -1.3118971028     0.4154347014    -0.2125528511
Bq        -1.3115410359     0.4653743091    -0.2149836535
Bq        -1.3111849689     0.5153139168    -0.2174144558
Bq        -1.3108289019     0.5652535245    -0.2198452582
Bq        -1.3104728349     0.6151931321    -0.2222760606
Bq        -1.3101167680     0.6651327398    -0.2247068630
Bq        -1.3097607010     0.7150723475    -0.2271376654
Bq        -1.3094046340     0.7650119552    -0.2295684678
Bq        -1.3090485671     0.8149515629    -0.2319992701
Bq        -1.3086925001     0.8648911706    -0.2344300725
Bq        -1.3083364331     0.9148307783    -0.2368608749
Bq        -1.3079803662     0.9647703860    -0.2392916773
Bq        -1.3076242992     1.0147099936    -0.2417224797
Bq        -1.3072682322     1.0646496013    -0.2441532821
Bq        -1.3069121652     1.1145892090    -0.2465840844
Bq        -1.3065560983     1.1645288167    -0.2490148868
Bq        -1.3062000313     1.2144684244    -0.2514456892
Bq        -1.3058439643     1.2644080321    -0.2538764916
Bq        -1.3054878974     1.3143476398    -0.2563072940
Bq        -1.3051318304     1.3642872475    -0.2587380964
Bq        -1.3047757634     1.4142268552    -0.2611688987
Bq        -1.3044196964     1.4641664628    -0.2635997011
Bq        -1.3040636295     1.5141060705    -0.2660305035
Bq        -1.3037075625     1.5640456782    -0.2684613059
Bq        -1.3033514955     1.6139852859    -0.2708921083
Bq        -1.3029954286     1.6639248936    -0.2733229107
Bq        -1.3026393616     1.7138645013    -0.2757537130
Bq        -1.3022832946     1.7638041090    -0.2781845154
Bq        -1.3019272276     1.8137437167    -0.2806153178
Bq        -1.3015711607     1.8636833244    -0.2830461202
Bq        -1.3012150937     1.9136229320    -0.2854769226
Bq        -1.3008590267     1.9635625397    -0.2879077250
Bq        -1.3005029598     2.0135021474    -0.2903385273
Bq        -1.3001468928     2.0634417551    -0.2927693297
Bq        -1.2997908258     2.1133813628    -0.2952001321
Bq        -1.2994347589     2.1633209705    -0.2976309345
Bq        -1.2990786919     2.2132605782    -0.3000617369
Bq        -1.2987226249     2.2632001859    -0.3024925393
Bq        -1.2983665579     2.3131397936    -0.3049233416
Bq        -1.2980104910     2.3630794012    -0.3073541440
Bq        -1.2976544240     2.4130190089    -0.3097849464
Bq        -1.2972983570     2.4629586166    -0.3122157488
Bq        -1.2969422901     2.5128982243    -0.3146465512
Bq        -1.2965862231     2.5628378320    -0.3170773536
Bq        -1.2962301561     2.6127774397    -0.3195081559
Bq        -1.2958740891     2.6627170474    -0.3219389583
Bq        -1.2955180222     2.7126566551    -0.3243697607
Bq        -1.2951619552     2.7625962627    -0.3268005631
Bq        -1.2948058882     2.8125358704    -0.3292313655
Bq        -1.2944498213     2.8624754781    -0.3316621679
Bq        -1.2940937543     2.9124150858    -0.3340929702
Bq        -1.2937376873     2.9623546935    -0.3365237726
Bq        -1.2933816203     3.0122943012    -0.3389545750
Bq        -1.2930255534     3.0622339089    -0.3413853774
Bq        -1.2926694864     3.1121735166    -0.3438161798
Bq        -1.2923134194     3.1621131243    -0.3462469822
Bq        -1.2919573525     3.2120527319    -0.3486777845
Bq        -1.2916012855     3.2619923396    -0.3511085869
Bq        -1.2912452185     3.3119319473    -0.3535393893
Bq        -1.2908891516     3.3618715550    -0.3559701917
Bq        -1.2905330846     3.4118111627    -0.3584009941
Bq        -1.2901770176     3.4617507704    -0.3608317965
Bq        -1.2898209506     3.5116903781    -0.3632625988
Bq        -1.2894648837     3.5616299858    -0.3656934012
Bq        -1.2891088167     3.6115695935    -0.3681242036
Bq        -1.2887527497     3.6615092011    -0.3705550060
Bq        -1.2883966828     3.7114488088    -0.3729858084
Bq        -1.2880406158     3.7613884165    -0.3754166108
Bq        -1.2876845488     3.8113280242    -0.3778474131
Bq        -1.2873284818     3.8612676319    -0.3802782155
Bq        -1.2869724149     3.9112072396    -0.3827090179
Bq        -1.2866163479     3.9611468473    -0.3851398203
Bq        -1.2862602809     4.0110864550    -0.3875706227
Bq        -1.2859042140     4.0610260627    -0.3900014251

1
2
3
4
5
6
7
8
9
10
11
12
13
14
15
16
17
18
19
20
21
22
23
24
25
26
27
28
29
30
31
32
33
34
35
36
37
38
39
40
41
42
43
44
45
46
47
48
49
50
51
52
53
54
55
56
57
58
59
60
61
62
63
64
65
66
67
68
69
70
71
72
73
74
75
76
77
78
79
80
81
82
83
84
85
86
87
88
89
90
91
92
93
94
95
96
97
98
99
100
101
102
103
104
105
106
107
108
109
110
111
112
113
114
115
116
117
118
119
120
121
122
123
124
125
126
127
128
129
130
131
132
133
134
135
136
137
138
139
140
141
142
143
144
145
146
147
148
149
150
151
152
153
154
155
156
157
158
159
160
161
162
163
164
165
166
167
168
169
170
171
172
173
174
175
176
177
178
179
180
181
182
183
184
185
186
187
188
189
190
191
192
193
194
195
196
197
198
199
200
201
202
203
204
205
206
207
208
209
210
211
212
213
214
215
216
217
218
219
220
221
222
223
224
225
226
227
228
229
230
231
232
233
234
235
236

