%nproc=8
%mem=1000MB
# rb3lyp/6-311+g** NMR geom=connectivity

Title

0 1
C    -4.0500558   -0.5771862    0.8136712
H    -5.0263804   -1.0082727    1.0024760
C    -3.9381552    0.6617804    0.2400876
H    -4.8252424    1.2338890   -0.0111295
C    -2.6768410    1.2433246    0.0057578
C    -1.4974121    0.5051527    0.2848253
C    -1.6508332   -0.7338728    0.9404026
H    -0.7713646   -1.2730967    1.2633753
C    -2.8898548   -1.2624035    1.1994307
H    -2.9683706   -2.2124563    1.7152676
C    -2.5773185    2.5963696   -0.4192930
H    -3.4870728    3.1412239   -0.6474055
C    -1.3741895    3.2147896   -0.4364030
H    -1.2997315    4.2742019   -0.6578144
C    -0.1719488    2.4994090   -0.1734588
C    -0.2043917    1.1018437    0.0192689
C     1.0513491    3.2042560   -0.0676222
H     1.0427344    4.2819499   -0.1896997
C     2.1942091    2.5487446    0.2579577
H     3.1168527    3.0912848    0.4334727
C     2.2216473    1.1336562    0.2934990
C     1.0486931    0.3945528    0.0302412
C     3.4483363    0.4614633    0.5573939
H     4.3095794    1.0606054    0.8334846
C     3.5427346   -0.8855926    0.4749463
H     4.4731467   -1.3939704    0.7038822
C     2.4490052   -1.6474447   -0.0196319
C     1.2150704   -1.0057258   -0.3013573
C     0.2531113   -1.7434440   -1.0216591
H    -0.6541356   -1.2535051   -1.3462847
C     0.4494193   -3.0628597   -1.3413779
H    -0.3083162   -3.5944309   -1.9054060
C     1.6251726   -3.7207967   -0.9552541
H     1.7670048   -4.7687404   -1.1927019
C     2.6109872   -3.0144177   -0.3183050
H     3.5525612   -3.4902813   -0.0646367
Bq         2.2508034905     0.5153139168     0.3043500651
Bq         2.2511595575     0.5652535245     0.3019192627
Bq         2.2515156244     0.6151931321     0.2994884603
Bq         2.2518716914     0.6651327398     0.2970576579
Bq         2.2522277584     0.7150723475     0.2946268555
Bq         2.2525838253     0.7650119552     0.2921960531
Bq         2.2529398923     0.8149515629     0.2897652508
Bq         2.2532959593     0.8648911706     0.2873344484
Bq         2.2536520263     0.9148307783     0.2849036460
Bq         2.2540080932     0.9647703860     0.2824728436
Bq         2.2543641602     1.0147099936     0.2800420412
Bq         2.2547202272     1.0646496013     0.2776112388
Bq         2.2550762941     1.1145892090     0.2751804365
Bq         2.2554323611     1.1645288167     0.2727496341
Bq         2.2557884281     1.2144684244     0.2703188317
Bq         2.2561444950     1.2644080321     0.2678880293
Bq         2.2565005620     1.3143476398     0.2654572269
Bq         2.2568566290     1.3642872475     0.2630264245
Bq         2.2572126960     1.4142268552     0.2605956222
Bq         2.2575687629     1.4641664628     0.2581648198
Bq         2.2579248299     1.5141060705     0.2557340174
Bq         2.2582808969     1.5640456782     0.2533032150
Bq         2.2586369638     1.6139852859     0.2508724126
Bq         2.2589930308     1.6639248936     0.2484416102
Bq         2.2593490978     1.7138645013     0.2460108079
Bq         2.2597051648     1.7638041090     0.2435800055
Bq         2.2600612317     1.8137437167     0.2411492031
Bq         2.2604172987     1.8636833244     0.2387184007
Bq         2.2607733657     1.9136229320     0.2362875983
Bq         2.2611294326     1.9635625397     0.2338567959
Bq         2.2614854996     2.0135021474     0.2314259936
Bq         2.2618415666     2.0634417551     0.2289951912
Bq         2.2621976336     2.1133813628     0.2265643888
Bq         2.2625537005     2.1633209705     0.2241335864
Bq         2.2629097675     2.2132605782     0.2217027840
Bq         2.2632658345     2.2632001859     0.2192719816
Bq         2.2636219014     2.3131397936     0.2168411793
Bq         2.2639779684     2.3630794012     0.2144103769
Bq         2.2643340354     2.4130190089     0.2119795745
Bq         2.2646901023     2.4629586166     0.2095487721
Bq         2.2650461693     2.5128982243     0.2071179697
Bq         2.2654022363     2.5628378320     0.2046871673
Bq         2.2657583033     2.6127774397     0.2022563650
Bq         2.2661143702     2.6627170474     0.1998255626
Bq         2.2664704372     2.7126566551     0.1973947602
Bq         2.2668265042     2.7625962627     0.1949639578
Bq         2.2671825711     2.8125358704     0.1925331554
Bq         2.2675386381     2.8624754781     0.1901023530
Bq         2.2678947051     2.9124150858     0.1876715507
Bq         2.2682507721     2.9623546935     0.1852407483
Bq         2.2686068390     3.0122943012     0.1828099459
Bq         2.2689629060     3.0622339089     0.1803791435
Bq         2.2693189730     3.1121735166     0.1779483411
Bq         2.2696750399     3.1621131243     0.1755175387
Bq         2.2700311069     3.2120527319     0.1730867364
Bq         2.2703871739     3.2619923396     0.1706559340
Bq         2.2707432409     3.3119319473     0.1682251316
Bq         2.2710993078     3.3618715550     0.1657943292
Bq         2.2714553748     3.4118111627     0.1633635268
Bq         2.2718114418     3.4617507704     0.1609327244
Bq         2.2721675087     3.5116903781     0.1585019221
Bq         2.2725235757     3.5616299858     0.1560711197
Bq         2.2728796427     3.6115695935     0.1536403173
Bq         2.2732357096     3.6615092011     0.1512095149
Bq         2.2735917766     3.7114488088     0.1487787125
Bq         2.2739478436     3.7613884165     0.1463479101
Bq         2.2743039106     3.8113280242     0.1439171078
Bq         2.2746599775     3.8612676319     0.1414863054
Bq         2.2750160445     3.9112072396     0.1390555030
Bq         2.2753721115     3.9611468473     0.1366247006
Bq         2.2757281784     4.0110864550     0.1341938982
Bq         2.2760842454     4.0610260627     0.1317630958
Bq         2.2764403124     4.1109656703     0.1293322935
Bq         2.2767963794     4.1609052780     0.1269014911
Bq         2.2771524463     4.2108448857     0.1244706887
Bq         2.2775085133     4.2607844934     0.1220398863
Bq         2.2778645803     4.3107241011     0.1196090839
Bq         2.2917299451    -0.6832366678     0.3699360517
Bq         2.2920860121    -0.6332970601     0.3675052493
Bq         2.2924420791    -0.5833574524     0.3650744469
Bq         2.2927981460    -0.5334178447     0.3626436446
Bq         2.2931542130    -0.4834782370     0.3602128422
Bq         2.2935102800    -0.4335386293     0.3577820398
Bq         2.2938663469    -0.3835990216     0.3553512374
Bq         2.2942224139    -0.3336594139     0.3529204350
Bq         2.2945784809    -0.2837198063     0.3504896326
Bq         2.2949345479    -0.2337801986     0.3480588303
Bq         2.2952906148    -0.1838405909     0.3456280279
Bq         2.2956466818    -0.1339009832     0.3431972255
Bq         2.2960027488    -0.0839613755     0.3407664231
Bq         2.2963588157    -0.0340217678     0.3383356207
Bq         2.2967148827     0.0159178399     0.3359048183
Bq         2.2970709497     0.0658574476     0.3334740160
Bq         2.2974270167     0.1157970553     0.3310432136
Bq         2.2977830836     0.1657366629     0.3286124112
Bq         2.2981391506     0.2156762706     0.3261816088
Bq         2.2984952176     0.2656158783     0.3237508064
Bq         2.2988512845     0.3155554860     0.3213200040
Bq         2.2992073515     0.3654950937     0.3188892017
Bq         2.2995634185     0.4154347014     0.3164583993
Bq         2.2999194855     0.4653743091     0.3140275969
Bq         2.3002755524     0.5153139168     0.3115967945
Bq         2.3006316194     0.5652535245     0.3091659921
Bq         2.3009876864     0.6151931321     0.3067351897
Bq         2.3013437533     0.6651327398     0.3043043874
Bq         2.3016998203     0.7150723475     0.3018735850
Bq         2.3020558873     0.7650119552     0.2994427826
Bq         2.3024119542     0.8149515629     0.2970119802
Bq         2.3027680212     0.8648911706     0.2945811778
Bq         2.3031240882     0.9148307783     0.2921503754
Bq         2.3034801552     0.9647703860     0.2897195731
Bq         2.3038362221     1.0147099936     0.2872887707
Bq         2.3041922891     1.0646496013     0.2848579683
Bq         2.3045483561     1.1145892090     0.2824271659
Bq         2.3049044230     1.1645288167     0.2799963635
Bq         2.3052604900     1.2144684244     0.2775655611
Bq         2.3056165570     1.2644080321     0.2751347588
Bq         2.3059726240     1.3143476398     0.2727039564
Bq         2.3063286909     1.3642872475     0.2702731540
Bq         2.3066847579     1.4142268552     0.2678423516
Bq         2.3070408249     1.4641664628     0.2654115492
Bq         2.3073968918     1.5141060705     0.2629807468
Bq         2.3077529588     1.5640456782     0.2605499445
Bq         2.3081090258     1.6139852859     0.2581191421
Bq         2.3084650928     1.6639248936     0.2556883397
Bq         2.3088211597     1.7138645013     0.2532575373
Bq         2.3091772267     1.7638041090     0.2508267349
Bq         2.3095332937     1.8137437167     0.2483959325
Bq         2.3098893606     1.8636833244     0.2459651302
Bq         2.3102454276     1.9136229320     0.2435343278
Bq         2.3106014946     1.9635625397     0.2411035254
Bq         2.3109575615     2.0135021474     0.2386727230
Bq         2.3113136285     2.0634417551     0.2362419206
Bq         2.3116696955     2.1133813628     0.2338111182
Bq         2.3120257625     2.1633209705     0.2313803159
Bq         2.3123818294     2.2132605782     0.2289495135
Bq         2.3127378964     2.2632001859     0.2265187111
Bq         2.3130939634     2.3131397936     0.2240879087
Bq         2.3134500303     2.3630794012     0.2216571063
Bq         2.3138060973     2.4130190089     0.2192263039
Bq         2.3141621643     2.4629586166     0.2167955016
Bq         2.3145182313     2.5128982243     0.2143646992
Bq         2.3148742982     2.5628378320     0.2119338968
Bq         2.3152303652     2.6127774397     0.2095030944
Bq         2.3155864322     2.6627170474     0.2070722920
Bq         2.3159424991     2.7126566551     0.2046414897
Bq         2.3162985661     2.7625962627     0.2022106873
Bq         2.3166546331     2.8125358704     0.1997798849
Bq         2.3170107001     2.8624754781     0.1973490825
Bq         2.3173667670     2.9124150858     0.1949182801
Bq         2.3177228340     2.9623546935     0.1924874777
Bq         2.3180789010     3.0122943012     0.1900566754
Bq         2.3184349679     3.0622339089     0.1876258730
Bq         2.3187910349     3.1121735166     0.1851950706
Bq         2.3191471019     3.1621131243     0.1827642682
Bq         2.3195031688     3.2120527319     0.1803334658
Bq         2.3198592358     3.2619923396     0.1779026634
Bq         2.3202153028     3.3119319473     0.1754718611
Bq         2.3205713698     3.3618715550     0.1730410587
Bq         2.3209274367     3.4118111627     0.1706102563
Bq         2.3212835037     3.4617507704     0.1681794539
Bq         2.3216395707     3.5116903781     0.1657486515
Bq         2.3219956376     3.5616299858     0.1633178491
Bq         2.3223517046     3.6115695935     0.1608870468
Bq         2.3227077716     3.6615092011     0.1584562444
Bq         2.3230638386     3.7114488088     0.1560254420
Bq         2.3234199055     3.7613884165     0.1535946396
Bq         2.3237759725     3.8113280242     0.1511638372
Bq         2.3241320395     3.8612676319     0.1487330348
Bq         2.3244881064     3.9112072396     0.1463022325
Bq         2.3248441734     3.9611468473     0.1438714301
Bq         2.3252002404     4.0110864550     0.1414406277
Bq         2.3255563074     4.0610260627     0.1390098253
Bq         2.3259123743     4.1109656703     0.1365790229
Bq         2.3262684413     4.1609052780     0.1341482205
Bq         2.3266245083     4.2108448857     0.1317174182
Bq         2.3269805752     4.2607844934     0.1292866158
Bq         2.3273366422     4.3107241011     0.1268558134
Bq         2.3412020071    -0.6832366678     0.3771827812
Bq         2.3415580740    -0.6332970601     0.3747519788
Bq         2.3419141410    -0.5833574524     0.3723211764
Bq         2.3422702080    -0.5334178447     0.3698903740
Bq         2.3426262749    -0.4834782370     0.3674595716
Bq         2.3429823419    -0.4335386293     0.3650287693
Bq         2.3433384089    -0.3835990216     0.3625979669
Bq         2.3436944759    -0.3336594139     0.3601671645
Bq         2.3440505428    -0.2837198063     0.3577363621
Bq         2.3444066098    -0.2337801986     0.3553055597
Bq         2.3447626768    -0.1838405909     0.3528747573
Bq         2.3451187437    -0.1339009832     0.3504439550
Bq         2.3454748107    -0.0839613755     0.3480131526
Bq         2.3458308777    -0.0340217678     0.3455823502
Bq         2.3461869446     0.0159178399     0.3431515478
Bq         2.3465430116     0.0658574476     0.3407207454
Bq         2.3468990786     0.1157970553     0.3382899430
Bq         2.3472551456     0.1657366629     0.3358591407
Bq         2.3476112125     0.2156762706     0.3334283383
Bq         2.3479672795     0.2656158783     0.3309975359
Bq         2.3483233465     0.3155554860     0.3285667335
Bq         2.3486794134     0.3654950937     0.3261359311

1
2
3
4
5
6
7
8
9
10
11
12
13
14
15
16
17
18
19
20
21
22
23
24
25
26
27
28
29
30
31
32
33
34
35
36
37
38
39
40
41
42
43
44
45
46
47
48
49
50
51
52
53
54
55
56
57
58
59
60
61
62
63
64
65
66
67
68
69
70
71
72
73
74
75
76
77
78
79
80
81
82
83
84
85
86
87
88
89
90
91
92
93
94
95
96
97
98
99
100
101
102
103
104
105
106
107
108
109
110
111
112
113
114
115
116
117
118
119
120
121
122
123
124
125
126
127
128
129
130
131
132
133
134
135
136
137
138
139
140
141
142
143
144
145
146
147
148
149
150
151
152
153
154
155
156
157
158
159
160
161
162
163
164
165
166
167
168
169
170
171
172
173
174
175
176
177
178
179
180
181
182
183
184
185
186
187
188
189
190
191
192
193
194
195
196
197
198
199
200
201
202
203
204
205
206
207
208
209
210
211
212
213
214
215
216
217
218
219
220
221
222
223
224
225
226
227
228
229
230
231
232
233
234
235
236

