%nproc=8
%mem=1000MB
# rb3lyp/6-311+g** NMR geom=connectivity

Title

0 1
C    -4.0500558   -0.5771862    0.8136712
H    -5.0263804   -1.0082727    1.0024760
C    -3.9381552    0.6617804    0.2400876
H    -4.8252424    1.2338890   -0.0111295
C    -2.6768410    1.2433246    0.0057578
C    -1.4974121    0.5051527    0.2848253
C    -1.6508332   -0.7338728    0.9404026
H    -0.7713646   -1.2730967    1.2633753
C    -2.8898548   -1.2624035    1.1994307
H    -2.9683706   -2.2124563    1.7152676
C    -2.5773185    2.5963696   -0.4192930
H    -3.4870728    3.1412239   -0.6474055
C    -1.3741895    3.2147896   -0.4364030
H    -1.2997315    4.2742019   -0.6578144
C    -0.1719488    2.4994090   -0.1734588
C    -0.2043917    1.1018437    0.0192689
C     1.0513491    3.2042560   -0.0676222
H     1.0427344    4.2819499   -0.1896997
C     2.1942091    2.5487446    0.2579577
H     3.1168527    3.0912848    0.4334727
C     2.2216473    1.1336562    0.2934990
C     1.0486931    0.3945528    0.0302412
C     3.4483363    0.4614633    0.5573939
H     4.3095794    1.0606054    0.8334846
C     3.5427346   -0.8855926    0.4749463
H     4.4731467   -1.3939704    0.7038822
C     2.4490052   -1.6474447   -0.0196319
C     1.2150704   -1.0057258   -0.3013573
C     0.2531113   -1.7434440   -1.0216591
H    -0.6541356   -1.2535051   -1.3462847
C     0.4494193   -3.0628597   -1.3413779
H    -0.3083162   -3.5944309   -1.9054060
C     1.6251726   -3.7207967   -0.9552541
H     1.7670048   -4.7687404   -1.1927019
C     2.6109872   -3.0144177   -0.3183050
H     3.5525612   -3.4902813   -0.0646367
Bq        -4.6307676082     1.5937242681    -0.2092594148
Bq        -4.6306821421     1.6387499644    -0.2310006054
Bq        -4.6305966760     1.6837756607    -0.2527417959
Bq        -4.6305112098     1.7288013571    -0.2744829864
Bq        -4.6304257437     1.7738270534    -0.2962241769
Bq        -4.6303402776     1.8188527497    -0.3179653674
Bq        -4.6302548114     1.8638784461    -0.3397065579
Bq        -4.6301693453     1.9089041424    -0.3614477485
Bq        -4.6300838791     1.9539298388    -0.3831889390
Bq        -4.6299984130     1.9989555351    -0.4049301295
Bq        -4.6299129469     2.0439812314    -0.4266713200
Bq        -4.6298274807     2.0890069278    -0.4484125105
Bq        -4.6297420146     2.1340326241    -0.4701537010
Bq        -4.6296565485     2.1790583204    -0.4918948916
Bq        -4.6295710823     2.2240840168    -0.5136360821
Bq        -4.5881180824    -2.2784856168     1.6606795215
Bq        -4.5880326162    -2.2334599204     1.6389383310
Bq        -4.5879471501    -2.1884342241     1.6171971405
Bq        -4.5878616840    -2.1434085278     1.5954559500
Bq        -4.5877762178    -2.0983828314     1.5737147595
Bq        -4.5876907517    -2.0533571351     1.5519735689
Bq        -4.5876052856    -2.0083314388     1.5302323784
Bq        -4.5875198194    -1.9633057424     1.5084911879
Bq        -4.5874343533    -1.9182800461     1.4867499974
Bq        -4.5873488871    -1.8732543497     1.4650088069
Bq        -4.5872634210    -1.8282286534     1.4432676164
Bq        -4.5871779549    -1.7832029571     1.4215264258
Bq        -4.5870924887    -1.7381772607     1.3997852353
Bq        -4.5870070226    -1.6931515644     1.3780440448
Bq        -4.5869215565    -1.6481258681     1.3563028543
Bq        -4.5868360903    -1.6031001717     1.3345616638
Bq        -4.5867506242    -1.5580744754     1.3128204733
Bq        -4.5866651580    -1.5130487791     1.2910792827
Bq        -4.5865796919    -1.4680230827     1.2693380922
Bq        -4.5864942258    -1.4229973864     1.2475969017
Bq        -4.5864087596    -1.3779716901     1.2258557112
Bq        -4.5863232935    -1.3329459937     1.2041145207
Bq        -4.5862378274    -1.2879202974     1.1823733302
Bq        -4.5861523612    -1.2428946011     1.1606321396
Bq        -4.5860668951    -1.1978689047     1.1388909491
Bq        -4.5859814289    -1.1528432084     1.1171497586
Bq        -4.5858959628    -1.1078175120     1.0954085681
Bq        -4.5858104967    -1.0627918157     1.0736673776
Bq        -4.5857250305    -1.0177661194     1.0519261871
Bq        -4.5856395644    -0.9727404230     1.0301849965
Bq        -4.5855540983    -0.9277147267     1.0084438060
Bq        -4.5854686321    -0.8826890304     0.9867026155
Bq        -4.5853831660    -0.8376633340     0.9649614250
Bq        -4.5852976999    -0.7926376377     0.9432202345
Bq        -4.5852122337    -0.7476119414     0.9214790440
Bq        -4.5851267676    -0.7025862450     0.8997378535
Bq        -4.5850413014    -0.6575605487     0.8779966629
Bq        -4.5849558353    -0.6125348524     0.8562554724
Bq        -4.5848703692    -0.5675091560     0.8345142819
Bq        -4.5847849030    -0.5224834597     0.8127730914
Bq        -4.5846994369    -0.4774577634     0.7910319009
Bq        -4.5846139708    -0.4324320670     0.7692907104
Bq        -4.5845285046    -0.3874063707     0.7475495198
Bq        -4.5844430385    -0.3423806743     0.7258083293
Bq        -4.5843575723    -0.2973549780     0.7040671388
Bq        -4.5842721062    -0.2523292817     0.6823259483
Bq        -4.5841866401    -0.2073035853     0.6605847578
Bq        -4.5841011739    -0.1622778890     0.6388435673
Bq        -4.5840157078    -0.1172521927     0.6171023767
Bq        -4.5839302417    -0.0722264963     0.5953611862
Bq        -4.5838447755    -0.0272008000     0.5736199957
Bq        -4.5837593094     0.0178248963     0.5518788052
Bq        -4.5836738432     0.0628505927     0.5301376147
Bq        -4.5835883771     0.1078762890     0.5083964242
Bq        -4.5835029110     0.1529019853     0.4866552336
Bq        -4.5834174448     0.1979276817     0.4649140431
Bq        -4.5833319787     0.2429533780     0.4431728526
Bq        -4.5832465126     0.2879790743     0.4214316621
Bq        -4.5831610464     0.3330047707     0.3996904716
Bq        -4.5830755803     0.3780304670     0.3779492811
Bq        -4.5829901141     0.4230561634     0.3562080905
Bq        -4.5829046480     0.4680818597     0.3344669000
Bq        -4.5828191819     0.5131075560     0.3127257095
Bq        -4.5827337157     0.5581332524     0.2909845190
Bq        -4.5826482496     0.6031589487     0.2692433285
Bq        -4.5825627835     0.6481846450     0.2475021380
Bq        -4.5824773173     0.6932103414     0.2257609474
Bq        -4.5823918512     0.7382360377     0.2040197569
Bq        -4.5823063850     0.7832617340     0.1822785664
Bq        -4.5822209189     0.8282874304     0.1605373759
Bq        -4.5821354528     0.8733131267     0.1387961854
Bq        -4.5820499866     0.9183388230     0.1170549949
Bq        -4.5819645205     0.9633645194     0.0953138043
Bq        -4.5818790544     1.0083902157     0.0735726138
Bq        -4.5817935882     1.0534159120     0.0518314233
Bq        -4.5817081221     1.0984416084     0.0300902328
Bq        -4.5816226559     1.1434673047     0.0083490423
Bq        -4.5815371898     1.1884930011    -0.0133921482
Bq        -4.5814517237     1.2335186974    -0.0351333387
Bq        -4.5813662575     1.2785443937    -0.0568745293
Bq        -4.5812807914     1.3235700901    -0.0786157198
Bq        -4.5811953253     1.3685957864    -0.1003569103
Bq        -4.5811098591     1.4136214827    -0.1220981008
Bq        -4.5810243930     1.4586471791    -0.1438392913
Bq        -4.5809389268     1.5036728754    -0.1655804818
Bq        -4.5808534607     1.5486985717    -0.1873216724
Bq        -4.5807679946     1.5937242681    -0.2090628629
Bq        -4.5806825284     1.6387499644    -0.2308040534
Bq        -4.5805970623     1.6837756607    -0.2525452439
Bq        -4.5805115962     1.7288013571    -0.2742864344
Bq        -4.5804261300     1.7738270534    -0.2960276249
Bq        -4.5803406639     1.8188527497    -0.3177688155
Bq        -4.5802551977     1.8638784461    -0.3395100060
Bq        -4.5801697316     1.9089041424    -0.3612511965
Bq        -4.5800842655     1.9539298388    -0.3829923870
Bq        -4.5799987993     1.9989555351    -0.4047335775
Bq        -4.5799133332     2.0439812314    -0.4264747680
Bq        -4.5798278671     2.0890069278    -0.4482159586
Bq        -4.5797424009     2.1340326241    -0.4699571491
Bq        -4.5796569348     2.1790583204    -0.4916983396
Bq        -4.5795714686     2.2240840168    -0.5134395301
Bq        -4.5381184687    -2.2784856168     1.6608760735
Bq        -4.5380330026    -2.2334599204     1.6391348830
Bq        -4.5379475364    -2.1884342241     1.6173936925
Bq        -4.5378620703    -2.1434085278     1.5956525019
Bq        -4.5377766042    -2.0983828314     1.5739113114
Bq        -4.5376911380    -2.0533571351     1.5521701209
Bq        -4.5376056719    -2.0083314388     1.5304289304
Bq        -4.5375202058    -1.9633057424     1.5086877399
Bq        -4.5374347396    -1.9182800461     1.4869465494
Bq        -4.5373492735    -1.8732543497     1.4652053588
Bq        -4.5372638073    -1.8282286534     1.4434641683
Bq        -4.5371783412    -1.7832029571     1.4217229778
Bq        -4.5370928751    -1.7381772607     1.3999817873
Bq        -4.5370074089    -1.6931515644     1.3782405968
Bq        -4.5369219428    -1.6481258681     1.3564994063
Bq        -4.5368364767    -1.6031001717     1.3347582157
Bq        -4.5367510105    -1.5580744754     1.3130170252
Bq        -4.5366655444    -1.5130487791     1.2912758347
Bq        -4.5365800782    -1.4680230827     1.2695346442
Bq        -4.5364946121    -1.4229973864     1.2477934537
Bq        -4.5364091460    -1.3779716901     1.2260522632
Bq        -4.5363236798    -1.3329459937     1.2043110726
Bq        -4.5362382137    -1.2879202974     1.1825698821
Bq        -4.5361527476    -1.2428946011     1.1608286916
Bq        -4.5360672814    -1.1978689047     1.1390875011
Bq        -4.5359818153    -1.1528432084     1.1173463106
Bq        -4.5358963491    -1.1078175120     1.0956051201
Bq        -4.5358108830    -1.0627918157     1.0738639296
Bq        -4.5357254169    -1.0177661194     1.0521227390
Bq        -4.5356399507    -0.9727404230     1.0303815485
Bq        -4.5355544846    -0.9277147267     1.0086403580
Bq        -4.5354690185    -0.8826890304     0.9868991675
Bq        -4.5353835523    -0.8376633340     0.9651579770
Bq        -4.5352980862    -0.7926376377     0.9434167865
Bq        -4.5352126200    -0.7476119414     0.9216755959
Bq        -4.5351271539    -0.7025862450     0.8999344054
Bq        -4.5350416878    -0.6575605487     0.8781932149
Bq        -4.5349562216    -0.6125348524     0.8564520244
Bq        -4.5348707555    -0.5675091560     0.8347108339
Bq        -4.5347852894    -0.5224834597     0.8129696434
Bq        -4.5346998232    -0.4774577634     0.7912284528
Bq        -4.5346143571    -0.4324320670     0.7694872623
Bq        -4.5345288909    -0.3874063707     0.7477460718
Bq        -4.5344434248    -0.3423806743     0.7260048813
Bq        -4.5343579587    -0.2973549780     0.7042636908
Bq        -4.5342724925    -0.2523292817     0.6825225003
Bq        -4.5341870264    -0.2073035853     0.6607813097
Bq        -4.5341015603    -0.1622778890     0.6390401192
Bq        -4.5340160941    -0.1172521927     0.6172989287
Bq        -4.5339306280    -0.0722264963     0.5955577382
Bq        -4.5338451618    -0.0272008000     0.5738165477
Bq        -4.5337596957     0.0178248963     0.5520753572
Bq        -4.5336742296     0.0628505927     0.5303341666
Bq        -4.5335887634     0.1078762890     0.5085929761
Bq        -4.5335032973     0.1529019853     0.4868517856
Bq        -4.5334178312     0.1979276817     0.4651105951
Bq        -4.5333323650     0.2429533780     0.4433694046
Bq        -4.5332468989     0.2879790743     0.4216282141
Bq        -4.5331614327     0.3330047707     0.3998870235
Bq        -4.5330759666     0.3780304670     0.3781458330
Bq        -4.5329905005     0.4230561634     0.3564046425
Bq        -4.5329050343     0.4680818597     0.3346634520
Bq        -4.5328195682     0.5131075560     0.3129222615
Bq        -4.5327341021     0.5581332524     0.2911810710
Bq        -4.5326486359     0.6031589487     0.2694398805
Bq        -4.5325631698     0.6481846450     0.2476986899
Bq        -4.5324777036     0.6932103414     0.2259574994
Bq        -4.5323922375     0.7382360377     0.2042163089
Bq        -4.5323067714     0.7832617340     0.1824751184
Bq        -4.5322213052     0.8282874304     0.1607339279
Bq        -4.5321358391     0.8733131267     0.1389927374
Bq        -4.5320503730     0.9183388230     0.1172515468
Bq        -4.5319649068     0.9633645194     0.0955103563
Bq        -4.5318794407     1.0083902157     0.0737691658
Bq        -4.5317939745     1.0534159120     0.0520279753
Bq        -4.5317085084     1.0984416084     0.0302867848
Bq        -4.5316230423     1.1434673047     0.0085455943
Bq        -4.5315375761     1.1884930011    -0.0131955963
Bq        -4.5314521100     1.2335186974    -0.0349367868
Bq        -4.5313666439     1.2785443937    -0.0566779773
Bq        -4.5312811777     1.3235700901    -0.0784191678
Bq        -4.5311957116     1.3685957864    -0.1001603583
Bq        -4.5311102454     1.4136214827    -0.1219015488
Bq        -4.5310247793     1.4586471791    -0.1436427394

1
2
3
4
5
6
7
8
9
10
11
12
13
14
15
16
17
18
19
20
21
22
23
24
25
26
27
28
29
30
31
32
33
34
35
36
37
38
39
40
41
42
43
44
45
46
47
48
49
50
51
52
53
54
55
56
57
58
59
60
61
62
63
64
65
66
67
68
69
70
71
72
73
74
75
76
77
78
79
80
81
82
83
84
85
86
87
88
89
90
91
92
93
94
95
96
97
98
99
100
101
102
103
104
105
106
107
108
109
110
111
112
113
114
115
116
117
118
119
120
121
122
123
124
125
126
127
128
129
130
131
132
133
134
135
136
137
138
139
140
141
142
143
144
145
146
147
148
149
150
151
152
153
154
155
156
157
158
159
160
161
162
163
164
165
166
167
168
169
170
171
172
173
174
175
176
177
178
179
180
181
182
183
184
185
186
187
188
189
190
191
192
193
194
195
196
197
198
199
200
201
202
203
204
205
206
207
208
209
210
211
212
213
214
215
216
217
218
219
220
221
222
223
224
225
226
227
228
229
230
231
232
233
234
235
236

