%nproc=8
%mem=1000MB
# rb3lyp/6-311+g** NMR geom=connectivity

Title

0 1
C    -4.0500558   -0.5771862    0.8136712
H    -5.0263804   -1.0082727    1.0024760
C    -3.9381552    0.6617804    0.2400876
H    -4.8252424    1.2338890   -0.0111295
C    -2.6768410    1.2433246    0.0057578
C    -1.4974121    0.5051527    0.2848253
C    -1.6508332   -0.7338728    0.9404026
H    -0.7713646   -1.2730967    1.2633753
C    -2.8898548   -1.2624035    1.1994307
H    -2.9683706   -2.2124563    1.7152676
C    -2.5773185    2.5963696   -0.4192930
H    -3.4870728    3.1412239   -0.6474055
C    -1.3741895    3.2147896   -0.4364030
H    -1.2997315    4.2742019   -0.6578144
C    -0.1719488    2.4994090   -0.1734588
C    -0.2043917    1.1018437    0.0192689
C     1.0513491    3.2042560   -0.0676222
H     1.0427344    4.2819499   -0.1896997
C     2.1942091    2.5487446    0.2579577
H     3.1168527    3.0912848    0.4334727
C     2.2216473    1.1336562    0.2934990
C     1.0486931    0.3945528    0.0302412
C     3.4483363    0.4614633    0.5573939
H     4.3095794    1.0606054    0.8334846
C     3.5427346   -0.8855926    0.4749463
H     4.4731467   -1.3939704    0.7038822
C     2.4490052   -1.6474447   -0.0196319
C     1.2150704   -1.0057258   -0.3013573
C     0.2531113   -1.7434440   -1.0216591
H    -0.6541356   -1.2535051   -1.3462847
C     0.4494193   -3.0628597   -1.3413779
H    -0.3083162   -3.5944309   -1.9054060
C     1.6251726   -3.7207967   -0.9552541
H     1.7670048   -4.7687404   -1.1927019
C     2.6109872   -3.0144177   -0.3183050
H     3.5525612   -3.4902813   -0.0646367
Bq         0.8755556315     1.9136229320     0.0333791735
Bq         0.8759116984     1.9635625397     0.0309483711
Bq         0.8762677654     2.0135021474     0.0285175688
Bq         0.8766238324     2.0634417551     0.0260867664
Bq         0.8769798994     2.1133813628     0.0236559640
Bq         0.8773359663     2.1633209705     0.0212251616
Bq         0.8776920333     2.2132605782     0.0187943592
Bq         0.8780481003     2.2632001859     0.0163635568
Bq         0.8784041672     2.3131397936     0.0139327545
Bq         0.8787602342     2.3630794012     0.0115019521
Bq         0.8791163012     2.4130190089     0.0090711497
Bq         0.8794723681     2.4629586166     0.0066403473
Bq         0.8798284351     2.5128982243     0.0042095449
Bq         0.8801845021     2.5628378320     0.0017787425
Bq         0.8805405691     2.6127774397    -0.0006520598
Bq         0.8808966360     2.6627170474    -0.0030828622
Bq         0.8812527030     2.7126566551    -0.0055136646
Bq         0.8816087700     2.7625962627    -0.0079444670
Bq         0.8819648369     2.8125358704    -0.0103752694
Bq         0.8823209039     2.8624754781    -0.0128060718
Bq         0.8826769709     2.9124150858    -0.0152368741
Bq         0.8830330379     2.9623546935    -0.0176676765
Bq         0.8833891048     3.0122943012    -0.0200984789
Bq         0.8837451718     3.0622339089    -0.0225292813
Bq         0.8841012388     3.1121735166    -0.0249600837
Bq         0.8844573057     3.1621131243    -0.0273908861
Bq         0.8848133727     3.2120527319    -0.0298216884
Bq         0.8851694397     3.2619923396    -0.0322524908
Bq         0.8855255067     3.3119319473    -0.0346832932
Bq         0.8858815736     3.3618715550    -0.0371140956
Bq         0.8862376406     3.4118111627    -0.0395448980
Bq         0.8865937076     3.4617507704    -0.0419757004
Bq         0.8869497745     3.5116903781    -0.0444065027
Bq         0.8873058415     3.5616299858    -0.0468373051
Bq         0.8876619085     3.6115695935    -0.0492681075
Bq         0.8880179754     3.6615092011    -0.0516989099
Bq         0.8883740424     3.7114488088    -0.0541297123
Bq         0.8887301094     3.7613884165    -0.0565605147
Bq         0.8890861764     3.8113280242    -0.0589913170
Bq         0.8894422433     3.8612676319    -0.0614221194
Bq         0.8897983103     3.9112072396    -0.0638529218
Bq         0.8901543773     3.9611468473    -0.0662837242
Bq         0.8905104442     4.0110864550    -0.0687145266
Bq         0.8908665112     4.0610260627    -0.0711453289
Bq         0.8912225782     4.1109656703    -0.0735761313
Bq         0.8915786452     4.1609052780    -0.0760069337
Bq         0.8919347121     4.2108448857    -0.0784377361
Bq         0.8922907791     4.2607844934    -0.0808685385
Bq         0.8926468461     4.3107241011    -0.0832993409
Bq         0.9065122109    -0.6832366678     0.1670276269
Bq         0.9068682779    -0.6332970601     0.1645968245
Bq         0.9072243449    -0.5833574524     0.1621660221
Bq         0.9075804118    -0.5334178447     0.1597352198
Bq         0.9079364788    -0.4834782370     0.1573044174
Bq         0.9082925458    -0.4335386293     0.1548736150
Bq         0.9086486127    -0.3835990216     0.1524428126
Bq         0.9090046797    -0.3336594139     0.1500120102
Bq         0.9093607467    -0.2837198063     0.1475812078
Bq         0.9097168137    -0.2337801986     0.1451504055
Bq         0.9100728806    -0.1838405909     0.1427196031
Bq         0.9104289476    -0.1339009832     0.1402888007
Bq         0.9107850146    -0.0839613755     0.1378579983
Bq         0.9111410815    -0.0340217678     0.1354271959
Bq         0.9114971485     0.0159178399     0.1329963935
Bq         0.9118532155     0.0658574476     0.1305655912
Bq         0.9122092825     0.1157970553     0.1281347888
Bq         0.9125653494     0.1657366629     0.1257039864
Bq         0.9129214164     0.2156762706     0.1232731840
Bq         0.9132774834     0.2656158783     0.1208423816
Bq         0.9136335503     0.3155554860     0.1184115792
Bq         0.9139896173     0.3654950937     0.1159807769
Bq         0.9143456843     0.4154347014     0.1135499745
Bq         0.9147017512     0.4653743091     0.1111191721
Bq         0.9150578182     0.5153139168     0.1086883697
Bq         0.9154138852     0.5652535245     0.1062575673
Bq         0.9157699522     0.6151931321     0.1038267650
Bq         0.9161260191     0.6651327398     0.1013959626
Bq         0.9164820861     0.7150723475     0.0989651602
Bq         0.9168381531     0.7650119552     0.0965343578
Bq         0.9171942200     0.8149515629     0.0941035554
Bq         0.9175502870     0.8648911706     0.0916727530
Bq         0.9179063540     0.9148307783     0.0892419507
Bq         0.9182624210     0.9647703860     0.0868111483
Bq         0.9186184879     1.0147099936     0.0843803459
Bq         0.9189745549     1.0646496013     0.0819495435
Bq         0.9193306219     1.1145892090     0.0795187411
Bq         0.9196866888     1.1645288167     0.0770879387
Bq         0.9200427558     1.2144684244     0.0746571364
Bq         0.9203988228     1.2644080321     0.0722263340
Bq         0.9207548898     1.3143476398     0.0697955316
Bq         0.9211109567     1.3642872475     0.0673647292
Bq         0.9214670237     1.4142268552     0.0649339268
Bq         0.9218230907     1.4641664628     0.0625031244
Bq         0.9221791576     1.5141060705     0.0600723221
Bq         0.9225352246     1.5640456782     0.0576415197
Bq         0.9228912916     1.6139852859     0.0552107173
Bq         0.9232473585     1.6639248936     0.0527799149
Bq         0.9236034255     1.7138645013     0.0503491125
Bq         0.9239594925     1.7638041090     0.0479183101
Bq         0.9243155595     1.8137437167     0.0454875078
Bq         0.9246716264     1.8636833244     0.0430567054
Bq         0.9250276934     1.9136229320     0.0406259030
Bq         0.9253837604     1.9635625397     0.0381951006
Bq         0.9257398273     2.0135021474     0.0357642982
Bq         0.9260958943     2.0634417551     0.0333334958
Bq         0.9264519613     2.1133813628     0.0309026935
Bq         0.9268080283     2.1633209705     0.0284718911
Bq         0.9271640952     2.2132605782     0.0260410887
Bq         0.9275201622     2.2632001859     0.0236102863
Bq         0.9278762292     2.3131397936     0.0211794839
Bq         0.9282322961     2.3630794012     0.0187486815
Bq         0.9285883631     2.4130190089     0.0163178792
Bq         0.9289444301     2.4629586166     0.0138870768
Bq         0.9293004971     2.5128982243     0.0114562744
Bq         0.9296565640     2.5628378320     0.0090254720
Bq         0.9300126310     2.6127774397     0.0065946696
Bq         0.9303686980     2.6627170474     0.0041638672
Bq         0.9307247649     2.7126566551     0.0017330649
Bq         0.9310808319     2.7625962627    -0.0006977375
Bq         0.9314368989     2.8125358704    -0.0031285399
Bq         0.9317929658     2.8624754781    -0.0055593423
Bq         0.9321490328     2.9124150858    -0.0079901447
Bq         0.9325050998     2.9623546935    -0.0104209471
Bq         0.9328611668     3.0122943012    -0.0128517494
Bq         0.9332172337     3.0622339089    -0.0152825518
Bq         0.9335733007     3.1121735166    -0.0177133542
Bq         0.9339293677     3.1621131243    -0.0201441566
Bq         0.9342854346     3.2120527319    -0.0225749590
Bq         0.9346415016     3.2619923396    -0.0250057614
Bq         0.9349975686     3.3119319473    -0.0274365637
Bq         0.9353536356     3.3618715550    -0.0298673661
Bq         0.9357097025     3.4118111627    -0.0322981685
Bq         0.9360657695     3.4617507704    -0.0347289709
Bq         0.9364218365     3.5116903781    -0.0371597733
Bq         0.9367779034     3.5616299858    -0.0395905757
Bq         0.9371339704     3.6115695935    -0.0420213780
Bq         0.9374900374     3.6615092011    -0.0444521804
Bq         0.9378461044     3.7114488088    -0.0468829828
Bq         0.9382021713     3.7613884165    -0.0493137852
Bq         0.9385582383     3.8113280242    -0.0517445876
Bq         0.9389143053     3.8612676319    -0.0541753900
Bq         0.9392703722     3.9112072396    -0.0566061923
Bq         0.9396264392     3.9611468473    -0.0590369947
Bq         0.9399825062     4.0110864550    -0.0614677971
Bq         0.9403385731     4.0610260627    -0.0638985995
Bq         0.9406946401     4.1109656703    -0.0663294019
Bq         0.9410507071     4.1609052780    -0.0687602043
Bq         0.9414067741     4.2108448857    -0.0711910066
Bq         0.9417628410     4.2607844934    -0.0736218090
Bq         0.9421189080     4.3107241011    -0.0760526114
Bq         0.9559842729    -0.6832366678     0.1742743564
Bq         0.9563403398    -0.6332970601     0.1718435540
Bq         0.9566964068    -0.5833574524     0.1694127516
Bq         0.9570524738    -0.5334178447     0.1669819492
Bq         0.9574085407    -0.4834782370     0.1645511468
Bq         0.9577646077    -0.4335386293     0.1621203445
Bq         0.9581206747    -0.3835990216     0.1596895421
Bq         0.9584767417    -0.3336594139     0.1572587397
Bq         0.9588328086    -0.2837198063     0.1548279373
Bq         0.9591888756    -0.2337801986     0.1523971349
Bq         0.9595449426    -0.1838405909     0.1499663325
Bq         0.9599010095    -0.1339009832     0.1475355302
Bq         0.9602570765    -0.0839613755     0.1451047278
Bq         0.9606131435    -0.0340217678     0.1426739254
Bq         0.9609692104     0.0159178399     0.1402431230
Bq         0.9613252774     0.0658574476     0.1378123206
Bq         0.9616813444     0.1157970553     0.1353815182
Bq         0.9620374114     0.1657366629     0.1329507159
Bq         0.9623934783     0.2156762706     0.1305199135
Bq         0.9627495453     0.2656158783     0.1280891111
Bq         0.9631056123     0.3155554860     0.1256583087
Bq         0.9634616792     0.3654950937     0.1232275063
Bq         0.9638177462     0.4154347014     0.1207967039
Bq         0.9641738132     0.4653743091     0.1183659016
Bq         0.9645298802     0.5153139168     0.1159350992
Bq         0.9648859471     0.5652535245     0.1135042968
Bq         0.9652420141     0.6151931321     0.1110734944
Bq         0.9655980811     0.6651327398     0.1086426920
Bq         0.9659541480     0.7150723475     0.1062118896
Bq         0.9663102150     0.7650119552     0.1037810873
Bq         0.9666662820     0.8149515629     0.1013502849
Bq         0.9670223490     0.8648911706     0.0989194825
Bq         0.9673784159     0.9148307783     0.0964886801
Bq         0.9677344829     0.9647703860     0.0940578777
Bq         0.9680905499     1.0147099936     0.0916270753
Bq         0.9684466168     1.0646496013     0.0891962730
Bq         0.9688026838     1.1145892090     0.0867654706
Bq         0.9691587508     1.1645288167     0.0843346682
Bq         0.9695148177     1.2144684244     0.0819038658
Bq         0.9698708847     1.2644080321     0.0794730634
Bq         0.9702269517     1.3143476398     0.0770422610
Bq         0.9705830187     1.3642872475     0.0746114587
Bq         0.9709390856     1.4142268552     0.0721806563
Bq         0.9712951526     1.4641664628     0.0697498539
Bq         0.9716512196     1.5141060705     0.0673190515
Bq         0.9720072865     1.5640456782     0.0648882491
Bq         0.9723633535     1.6139852859     0.0624574467
Bq         0.9727194205     1.6639248936     0.0600266444
Bq         0.9730754875     1.7138645013     0.0575958420
Bq         0.9734315544     1.7638041090     0.0551650396

1
2
3
4
5
6
7
8
9
10
11
12
13
14
15
16
17
18
19
20
21
22
23
24
25
26
27
28
29
30
31
32
33
34
35
36
37
38
39
40
41
42
43
44
45
46
47
48
49
50
51
52
53
54
55
56
57
58
59
60
61
62
63
64
65
66
67
68
69
70
71
72
73
74
75
76
77
78
79
80
81
82
83
84
85
86
87
88
89
90
91
92
93
94
95
96
97
98
99
100
101
102
103
104
105
106
107
108
109
110
111
112
113
114
115
116
117
118
119
120
121
122
123
124
125
126
127
128
129
130
131
132
133
134
135
136
137
138
139
140
141
142
143
144
145
146
147
148
149
150
151
152
153
154
155
156
157
158
159
160
161
162
163
164
165
166
167
168
169
170
171
172
173
174
175
176
177
178
179
180
181
182
183
184
185
186
187
188
189
190
191
192
193
194
195
196
197
198
199
200
201
202
203
204
205
206
207
208
209
210
211
212
213
214
215
216
217
218
219
220
221
222
223
224
225
226
227
228
229
230
231
232
233
234
235
236

