%nproc=8
%mem=1000MB
# rb3lyp/6-311+g** NMR geom=connectivity

Title

0 1
C    -4.0500558   -0.5771862    0.8136712
H    -5.0263804   -1.0082727    1.0024760
C    -3.9381552    0.6617804    0.2400876
H    -4.8252424    1.2338890   -0.0111295
C    -2.6768410    1.2433246    0.0057578
C    -1.4974121    0.5051527    0.2848253
C    -1.6508332   -0.7338728    0.9404026
H    -0.7713646   -1.2730967    1.2633753
C    -2.8898548   -1.2624035    1.1994307
H    -2.9683706   -2.2124563    1.7152676
C    -2.5773185    2.5963696   -0.4192930
H    -3.4870728    3.1412239   -0.6474055
C    -1.3741895    3.2147896   -0.4364030
H    -1.2997315    4.2742019   -0.6578144
C    -0.1719488    2.4994090   -0.1734588
C    -0.2043917    1.1018437    0.0192689
C     1.0513491    3.2042560   -0.0676222
H     1.0427344    4.2819499   -0.1896997
C     2.1942091    2.5487446    0.2579577
H     3.1168527    3.0912848    0.4334727
C     2.2216473    1.1336562    0.2934990
C     1.0486931    0.3945528    0.0302412
C     3.4483363    0.4614633    0.5573939
H     4.3095794    1.0606054    0.8334846
C     3.5427346   -0.8855926    0.4749463
H     4.4731467   -1.3939704    0.7038822
C     2.4490052   -1.6474447   -0.0196319
C     1.2150704   -1.0057258   -0.3013573
C     0.2531113   -1.7434440   -1.0216591
H    -0.6541356   -1.2535051   -1.3462847
C     0.4494193   -3.0628597   -1.3413779
H    -0.3083162   -3.5944309   -1.9054060
C     1.6251726   -3.7207967   -0.9552541
H     1.7670048   -4.7687404   -1.1927019
C     2.6109872   -3.0144177   -0.3183050
H     3.5525612   -3.4902813   -0.0646367
Bq         4.2779723699    -2.2378356807     0.4035886537
Bq         4.2761268447    -2.1883443337     0.4104589235
Bq         4.2742813194    -2.1388529867     0.4173291933
Bq         4.2724357941    -2.0893616397     0.4241994630
Bq         4.2705902689    -2.0398702926     0.4310697328
Bq         4.2687447436    -1.9903789456     0.4379400026
Bq         4.2668992183    -1.9408875986     0.4448102724
Bq         4.2650536931    -1.8913962516     0.4516805422
Bq         4.2632081678    -1.8419049046     0.4585508119
Bq         4.2613626425    -1.7924135576     0.4654210817
Bq         4.2595171173    -1.7429222105     0.4722913515
Bq         4.2576715920    -1.6934308635     0.4791616213
Bq         4.2558260667    -1.6439395165     0.4860318911
Bq         4.2539805415    -1.5944481695     0.4929021608
Bq         4.2521350162    -1.5449568225     0.4997724306
Bq         4.2502894909    -1.4954654754     0.5066427004
Bq         4.2484439657    -1.4459741284     0.5135129702
Bq         4.2465984404    -1.3964827814     0.5203832400
Bq         4.2447529151    -1.3469914344     0.5272535097
Bq         4.2429073899    -1.2975000874     0.5341237795
Bq         4.2410618646    -1.2480087404     0.5409940493
Bq         4.2392163393    -1.1985173933     0.5478643191
Bq         4.2373708141    -1.1490260463     0.5547345889
Bq         4.2355252888    -1.0995346993     0.5616048586
Bq         4.2336797635    -1.0500433523     0.5684751284
Bq         4.2318342383    -1.0005520053     0.5753453982
Bq         4.2299887130    -0.9510606583     0.5822156680
Bq         4.2281431877    -0.9015693112     0.5890859378
Bq         4.2262976625    -0.8520779642     0.5959562075
Bq         4.2244521372    -0.8025866172     0.6028264773
Bq         4.2226066119    -0.7530952702     0.6096967471
Bq         4.2207610866    -0.7036039232     0.6165670169
Bq         4.2189155614    -0.6541125761     0.6234372866
Bq         4.2170700361    -0.6046212291     0.6303075564
Bq         4.2152245108    -0.5551298821     0.6371778262
Bq         4.2133789856    -0.5056385351     0.6440480960
Bq         4.2115334603    -0.4561471881     0.6509183658
Bq         4.2096879350    -0.4066558411     0.6577886355
Bq         4.2078424098    -0.3571644940     0.6646589053
Bq         4.2059968845    -0.3076731470     0.6715291751
Bq         4.2041513592    -0.2581818000     0.6783994449
Bq         4.2023058340    -0.2086904530     0.6852697147
Bq         4.2004603087    -0.1591991060     0.6921399844
Bq         4.1986147834    -0.1097077589     0.6990102542
Bq         4.1967692582    -0.0602164119     0.7058805240
Bq         4.1949237329    -0.0107250649     0.7127507938
Bq         4.1930782076     0.0387662821     0.7196210636
Bq         4.1912326824     0.0882576291     0.7264913333
Bq         4.1893871571     0.1377489761     0.7333616031
Bq         4.1875416318     0.1872403232     0.7402318729
Bq         4.1856961066     0.2367316702     0.7471021427
Bq         4.1838505813     0.2862230172     0.7539724125
Bq         4.1820050560     0.3357143642     0.7608426822
Bq         4.1801595308     0.3852057112     0.7677129520
Bq         4.1783140055     0.4346970583     0.7745832218
Bq         4.1764684802     0.4841884053     0.7814534916
Bq         4.1746229550     0.5336797523     0.7883237614
Bq         4.1727774297     0.5831710993     0.7951940311
Bq         4.1709319044     0.6326624463     0.8020643009
Bq         4.1690863792     0.6821537933     0.8089345707
Bq         4.1672408539     0.7316451404     0.8158048405
Bq         4.1653953286     0.7811364874     0.8226751103
Bq         4.1635498034     0.8306278344     0.8295453800
Bq         4.1617042781     0.8801191814     0.8364156498
Bq         4.1598587528     0.9296105284     0.8432859196
Bq         4.1580132275     0.9791018754     0.8501561894
Bq         4.1561677023     1.0285932225     0.8570264592
Bq         4.1543221770     1.0780845695     0.8638967289
Bq         4.1524766517     1.1275759165     0.8707669987
Bq         4.1506311265     1.1770672635     0.8776372685
Bq         4.1487856012     1.2265586105     0.8845075383
Bq         4.1469400759     1.2760499576     0.8913778080
Bq         4.1450945507     1.3255413046     0.8982480778
Bq         4.1432490254     1.3750326516     0.9051183476
Bq         4.1414035001     1.4245239986     0.9119886174
Bq         4.1395579749     1.4740153456     0.9188588872
Bq         4.1377124496     1.5235066926     0.9257291569
Bq         4.1358669243     1.5729980397     0.9325994267
Bq         4.1340213991     1.6224893867     0.9394696965
Bq         4.1321758738     1.6719807337     0.9463399663
Bq         4.1303303485     1.7214720807     0.9532102361
Bq         4.1284848233     1.7709634277     0.9600805058
Bq         4.1266392980     1.8204547748     0.9669507756
Bq         4.1247937727     1.8699461218     0.9738210454
Bq         4.1229482475     1.9194374688     0.9806913152
Bq         4.1211027222     1.9689288158     0.9875615850
Bq         4.1192571969     2.0184201628     0.9944318547
Bq         4.1174116717     2.0679115098     1.0013021245
Bq         4.1155661464     2.1174028569     1.0081723943
Bq         4.1137206211     2.1668942039     1.0150426641
Bq         4.1118750959     2.2163855509     1.0219129339
Bq         4.3447157476    -2.7327491509     0.3478573468
Bq         4.3428702224    -2.6832578039     0.3547276166
Bq         4.3410246971    -2.6337664569     0.3615978864
Bq         4.3391791718    -2.5842751098     0.3684681561
Bq         4.3373336466    -2.5347837628     0.3753384259
Bq         4.3354881213    -2.4852924158     0.3822086957
Bq         4.3336425960    -2.4358010688     0.3890789655
Bq         4.3317970708    -2.3863097218     0.3959492353
Bq         4.3299515455    -2.3368183748     0.4028195050
Bq         4.3281060202    -2.2873270277     0.4096897748
Bq         4.3262604950    -2.2378356807     0.4165600446
Bq         4.3244149697    -2.1883443337     0.4234303144
Bq         4.3225694444    -2.1388529867     0.4303005842
Bq         4.3207239192    -2.0893616397     0.4371708539
Bq         4.3188783939    -2.0398702926     0.4440411237
Bq         4.3170328686    -1.9903789456     0.4509113935
Bq         4.3151873434    -1.9408875986     0.4577816633
Bq         4.3133418181    -1.8913962516     0.4646519331
Bq         4.3114962928    -1.8419049046     0.4715222028
Bq         4.3096507676    -1.7924135576     0.4783924726
Bq         4.3078052423    -1.7429222105     0.4852627424
Bq         4.3059597170    -1.6934308635     0.4921330122
Bq         4.3041141918    -1.6439395165     0.4990032820
Bq         4.3022686665    -1.5944481695     0.5058735517
Bq         4.3004231412    -1.5449568225     0.5127438215
Bq         4.2985776160    -1.4954654754     0.5196140913
Bq         4.2967320907    -1.4459741284     0.5264843611
Bq         4.2948865654    -1.3964827814     0.5333546309
Bq         4.2930410402    -1.3469914344     0.5402249006
Bq         4.2911955149    -1.2975000874     0.5470951704
Bq         4.2893499896    -1.2480087404     0.5539654402
Bq         4.2875044643    -1.1985173933     0.5608357100
Bq         4.2856589391    -1.1490260463     0.5677059797
Bq         4.2838134138    -1.0995346993     0.5745762495
Bq         4.2819678885    -1.0500433523     0.5814465193
Bq         4.2801223633    -1.0005520053     0.5883167891
Bq         4.2782768380    -0.9510606583     0.5951870589
Bq         4.2764313127    -0.9015693112     0.6020573286
Bq         4.2745857875    -0.8520779642     0.6089275984
Bq         4.2727402622    -0.8025866172     0.6157978682
Bq         4.2708947369    -0.7530952702     0.6226681380
Bq         4.2690492117    -0.7036039232     0.6295384078
Bq         4.2672036864    -0.6541125761     0.6364086775
Bq         4.2653581611    -0.6046212291     0.6432789473
Bq         4.2635126359    -0.5551298821     0.6501492171
Bq         4.2616671106    -0.5056385351     0.6570194869
Bq         4.2598215853    -0.4561471881     0.6638897567
Bq         4.2579760601    -0.4066558411     0.6707600264
Bq         4.2561305348    -0.3571644940     0.6776302962
Bq         4.2542850095    -0.3076731470     0.6845005660
Bq         4.2524394843    -0.2581818000     0.6913708358
Bq         4.2505939590    -0.2086904530     0.6982411056
Bq         4.2487484337    -0.1591991060     0.7051113753
Bq         4.2469029085    -0.1097077589     0.7119816451
Bq         4.2450573832    -0.0602164119     0.7188519149
Bq         4.2432118579    -0.0107250649     0.7257221847
Bq         4.2413663327     0.0387662821     0.7325924545
Bq         4.2395208074     0.0882576291     0.7394627242
Bq         4.2376752821     0.1377489761     0.7463329940
Bq         4.2358297569     0.1872403232     0.7532032638
Bq         4.2339842316     0.2367316702     0.7600735336
Bq         4.2321387063     0.2862230172     0.7669438034
Bq         4.2302931811     0.3357143642     0.7738140731
Bq         4.2284476558     0.3852057112     0.7806843429
Bq         4.2266021305     0.4346970583     0.7875546127
Bq         4.2247566052     0.4841884053     0.7944248825
Bq         4.2229110800     0.5336797523     0.8012951523
Bq         4.2210655547     0.5831710993     0.8081654220
Bq         4.2192200294     0.6326624463     0.8150356918
Bq         4.2173745042     0.6821537933     0.8219059616
Bq         4.2155289789     0.7316451404     0.8287762314
Bq         4.2136834536     0.7811364874     0.8356465011
Bq         4.2118379284     0.8306278344     0.8425167709
Bq         4.2099924031     0.8801191814     0.8493870407
Bq         4.2081468778     0.9296105284     0.8562573105
Bq         4.2063013526     0.9791018754     0.8631275803
Bq         4.2044558273     1.0285932225     0.8699978500
Bq         4.2026103020     1.0780845695     0.8768681198
Bq         4.2007647768     1.1275759165     0.8837383896
Bq         4.1989192515     1.1770672635     0.8906086594
Bq         4.1970737262     1.2265586105     0.8974789292
Bq         4.1952282010     1.2760499576     0.9043491989
Bq         4.1933826757     1.3255413046     0.9112194687
Bq         4.1915371504     1.3750326516     0.9180897385
Bq         4.1896916252     1.4245239986     0.9249600083
Bq         4.1878460999     1.4740153456     0.9318302781
Bq         4.1860005746     1.5235066926     0.9387005478
Bq         4.1841550494     1.5729980397     0.9455708176
Bq         4.1823095241     1.6224893867     0.9524410874
Bq         4.1804639988     1.6719807337     0.9593113572
Bq         4.1786184736     1.7214720807     0.9661816270
Bq         4.1767729483     1.7709634277     0.9730518967
Bq         4.1749274230     1.8204547748     0.9799221665
Bq         4.1730818978     1.8699461218     0.9867924363
Bq         4.1712363725     1.9194374688     0.9936627061
Bq         4.1693908472     1.9689288158     1.0005329759
Bq         4.1675453220     2.0184201628     1.0074032456
Bq         4.1656997967     2.0679115098     1.0142735154
Bq         4.1638542714     2.1174028569     1.0211437852
Bq         4.1620087461     2.1668942039     1.0280140550
Bq         4.1601632209     2.2163855509     1.0348843248
Bq         4.3930038727    -2.7327491509     0.3608287377
Bq         4.3911583474    -2.6832578039     0.3676990075
Bq         4.3893128221    -2.6337664569     0.3745692773
Bq         4.3874672969    -2.5842751098     0.3814395470
Bq         4.3856217716    -2.5347837628     0.3883098168
Bq         4.3837762463    -2.4852924158     0.3951800866
Bq         4.3819307211    -2.4358010688     0.4020503564
Bq         4.3800851958    -2.3863097218     0.4089206262

1
2
3
4
5
6
7
8
9
10
11
12
13
14
15
16
17
18
19
20
21
22
23
24
25
26
27
28
29
30
31
32
33
34
35
36
37
38
39
40
41
42
43
44
45
46
47
48
49
50
51
52
53
54
55
56
57
58
59
60
61
62
63
64
65
66
67
68
69
70
71
72
73
74
75
76
77
78
79
80
81
82
83
84
85
86
87
88
89
90
91
92
93
94
95
96
97
98
99
100
101
102
103
104
105
106
107
108
109
110
111
112
113
114
115
116
117
118
119
120
121
122
123
124
125
126
127
128
129
130
131
132
133
134
135
136
137
138
139
140
141
142
143
144
145
146
147
148
149
150
151
152
153
154
155
156
157
158
159
160
161
162
163
164
165
166
167
168
169
170
171
172
173
174
175
176
177
178
179
180
181
182
183
184
185
186
187
188
189
190
191
192
193
194
195
196
197
198
199
200
201
202
203
204
205
206
207
208
209
210
211
212
213
214
215
216
217
218
219
220
221
222
223
224
225
226
227
228
229
230
231
232
233
234
235
236

