%nproc=8
%mem=1000MB
# rb3lyp/6-311+g** NMR geom=connectivity

Title

0 1
C    -4.0500558   -0.5771862    0.8136712
H    -5.0263804   -1.0082727    1.0024760
C    -3.9381552    0.6617804    0.2400876
H    -4.8252424    1.2338890   -0.0111295
C    -2.6768410    1.2433246    0.0057578
C    -1.4974121    0.5051527    0.2848253
C    -1.6508332   -0.7338728    0.9404026
H    -0.7713646   -1.2730967    1.2633753
C    -2.8898548   -1.2624035    1.1994307
H    -2.9683706   -2.2124563    1.7152676
C    -2.5773185    2.5963696   -0.4192930
H    -3.4870728    3.1412239   -0.6474055
C    -1.3741895    3.2147896   -0.4364030
H    -1.2997315    4.2742019   -0.6578144
C    -0.1719488    2.4994090   -0.1734588
C    -0.2043917    1.1018437    0.0192689
C     1.0513491    3.2042560   -0.0676222
H     1.0427344    4.2819499   -0.1896997
C     2.1942091    2.5487446    0.2579577
H     3.1168527    3.0912848    0.4334727
C     2.2216473    1.1336562    0.2934990
C     1.0486931    0.3945528    0.0302412
C     3.4483363    0.4614633    0.5573939
H     4.3095794    1.0606054    0.8334846
C     3.5427346   -0.8855926    0.4749463
H     4.4731467   -1.3939704    0.7038822
C     2.4490052   -1.6474447   -0.0196319
C     1.2150704   -1.0057258   -0.3013573
C     0.2531113   -1.7434440   -1.0216591
H    -0.6541356   -1.2535051   -1.3462847
C     0.4494193   -3.0628597   -1.3413779
H    -0.3083162   -3.5944309   -1.9054060
C     1.6251726   -3.7207967   -0.9552541
H     1.7670048   -4.7687404   -1.1927019
C     2.6109872   -3.0144177   -0.3183050
H     3.5525612   -3.4902813   -0.0646367
Bq         3.3273214837    -4.1972481049    -0.3549916376
Bq         3.3218182470    -4.1490516135    -0.3428750123
Bq         3.3163150103    -4.1008551222    -0.3307583871
Bq         3.3108117736    -4.0526586308    -0.3186417619
Bq         3.3053085370    -4.0044621394    -0.3065251367
Bq         3.2998053003    -3.9562656481    -0.2944085114
Bq         3.2943020636    -3.9080691567    -0.2822918862
Bq         3.2887988269    -3.8598726654    -0.2701752610
Bq         3.2832955902    -3.8116761740    -0.2580586357
Bq         3.2777923535    -3.7634796827    -0.2459420105
Bq         3.2722891168    -3.7152831913    -0.2338253853
Bq         3.2667858802    -3.6670866999    -0.2217087601
Bq         3.2612826435    -3.6188902086    -0.2095921348
Bq         3.2557794068    -3.5706937172    -0.1974755096
Bq         3.2502761701    -3.5224972259    -0.1853588844
Bq         3.2447729334    -3.4743007345    -0.1732422591
Bq         3.2392696967    -3.4261042432    -0.1611256339
Bq         3.2337664600    -3.3779077518    -0.1490090087
Bq         3.2282632234    -3.3297112605    -0.1368923835
Bq         3.2227599867    -3.2815147691    -0.1247757582
Bq         3.2172567500    -3.2333182777    -0.1126591330
Bq         3.2117535133    -3.1851217864    -0.1005425078
Bq         3.2062502766    -3.1369252950    -0.0884258825
Bq         3.2007470399    -3.0887288037    -0.0763092573
Bq         3.1952438032    -3.0405323123    -0.0641926321
Bq         3.1897405666    -2.9923358210    -0.0520760069
Bq         3.1842373299    -2.9441393296    -0.0399593816
Bq         3.1787340932    -2.8959428383    -0.0278427564
Bq         3.1732308565    -2.8477463469    -0.0157261312
Bq         3.1677276198    -2.7995498555    -0.0036095059
Bq         3.1622243831    -2.7513533642     0.0085071193
Bq         3.1567211464    -2.7031568728     0.0206237445
Bq         3.1512179097    -2.6549603815     0.0327403698
Bq         3.1457146731    -2.6067638901     0.0448569950
Bq         3.1402114364    -2.5585673988     0.0569736202
Bq         3.1347081997    -2.5103709074     0.0690902454
Bq         3.1292049630    -2.4621744160     0.0812068707
Bq         3.1237017263    -2.4139779247     0.0933234959
Bq         3.1181984896    -2.3657814333     0.1054401211
Bq         3.1126952529    -2.3175849420     0.1175567464
Bq         3.1071920163    -2.2693884506     0.1296733716
Bq         3.1016887796    -2.2211919593     0.1417899968
Bq         3.0961855429    -2.1729954679     0.1539066220
Bq         3.0906823062    -2.1247989766     0.1660232473
Bq         3.0851790695    -2.0766024852     0.1781398725
Bq         3.0796758328    -2.0284059938     0.1902564977
Bq         3.0741725961    -1.9802095025     0.2023731230
Bq         3.0686693595    -1.9320130111     0.2144897482
Bq         3.0631661228    -1.8838165198     0.2266063734
Bq         3.0576628861    -1.8356200284     0.2387229986
Bq         3.0521596494    -1.7874235371     0.2508396239
Bq         3.0466564127    -1.7392270457     0.2629562491
Bq         3.0411531760    -1.6910305543     0.2750728743
Bq         3.0356499393    -1.6428340630     0.2871894996
Bq         3.0301467027    -1.5946375716     0.2993061248
Bq         3.0246434660    -1.5464410803     0.3114227500
Bq         3.0191402293    -1.4982445889     0.3235393752
Bq         3.0136369926    -1.4500480976     0.3356560005
Bq         3.0081337559    -1.4018516062     0.3477726257
Bq         3.0026305192    -1.3536551149     0.3598892509
Bq         2.9971272825    -1.3054586235     0.3720058762
Bq         2.9916240459    -1.2572621321     0.3841225014
Bq         2.9861208092    -1.2090656408     0.3962391266
Bq         2.9806175725    -1.1608691494     0.4083557518
Bq         2.9751143358    -1.1126726581     0.4204723771
Bq         2.9696110991    -1.0644761667     0.4325890023
Bq         2.9641078624    -1.0162796754     0.4447056275
Bq         2.9586046257    -0.9680831840     0.4568222528
Bq         2.9531013891    -0.9198866927     0.4689388780
Bq         2.9475981524    -0.8716902013     0.4810555032
Bq         2.9420949157    -0.8234937099     0.4931721285
Bq         2.9365916790    -0.7752972186     0.5052887537
Bq         2.9310884423    -0.7271007272     0.5174053789
Bq         2.9255852056    -0.6789042359     0.5295220041
Bq         2.9200819689    -0.6307077445     0.5416386294
Bq         2.9145787322    -0.5825112532     0.5537552546
Bq         2.9090754956    -0.5343147618     0.5658718798
Bq         2.9035722589    -0.4861182704     0.5779885051
Bq         2.8980690222    -0.4379217791     0.5901051303
Bq         2.8925657855    -0.3897252877     0.6022217555
Bq         2.8870625488    -0.3415287964     0.6143383807
Bq         2.8815593121    -0.2933323050     0.6264550060
Bq         2.8760560754    -0.2451358137     0.6385716312
Bq         2.8705528388    -0.1969393223     0.6506882564
Bq         2.8650496021    -0.1487428310     0.6628048817
Bq         2.8595463654    -0.1005463396     0.6749215069
Bq         2.8540431287    -0.0523498482     0.6870381321
Bq         2.8485398920    -0.0041533569     0.6991547573
Bq         2.8430366553     0.0440431345     0.7112713826
Bq         3.4388847606    -4.7756060011    -0.4797144465
Bq         3.4333815239    -4.7274095098    -0.4675978213
Bq         3.4278782872    -4.6792130184    -0.4554811961
Bq         3.4223750505    -4.6310165271    -0.4433645708
Bq         3.4168718138    -4.5828200357    -0.4312479456
Bq         3.4113685772    -4.5346235444    -0.4191313204
Bq         3.4058653405    -4.4864270530    -0.4070146951
Bq         3.4003621038    -4.4382305616    -0.3948980699
Bq         3.3948588671    -4.3900340703    -0.3827814447
Bq         3.3893556304    -4.3418375789    -0.3706648195
Bq         3.3838523937    -4.2936410876    -0.3585481942
Bq         3.3783491570    -4.2454445962    -0.3464315690
Bq         3.3728459204    -4.1972481049    -0.3343149438
Bq         3.3673426837    -4.1490516135    -0.3221983185
Bq         3.3618394470    -4.1008551222    -0.3100816933
Bq         3.3563362103    -4.0526586308    -0.2979650681
Bq         3.3508329736    -4.0044621394    -0.2858484428
Bq         3.3453297369    -3.9562656481    -0.2737318176
Bq         3.3398265002    -3.9080691567    -0.2616151924
Bq         3.3343232636    -3.8598726654    -0.2494985672
Bq         3.3288200269    -3.8116761740    -0.2373819419
Bq         3.3233167902    -3.7634796827    -0.2252653167
Bq         3.3178135535    -3.7152831913    -0.2131486915
Bq         3.3123103168    -3.6670866999    -0.2010320662
Bq         3.3068070801    -3.6188902086    -0.1889154410
Bq         3.3013038434    -3.5706937172    -0.1767988158
Bq         3.2958006068    -3.5224972259    -0.1646821906
Bq         3.2902973701    -3.4743007345    -0.1525655653
Bq         3.2847941334    -3.4261042432    -0.1404489401
Bq         3.2792908967    -3.3779077518    -0.1283323149
Bq         3.2737876600    -3.3297112605    -0.1162156896
Bq         3.2682844233    -3.2815147691    -0.1040990644
Bq         3.2627811866    -3.2333182777    -0.0919824392
Bq         3.2572779500    -3.1851217864    -0.0798658140
Bq         3.2517747133    -3.1369252950    -0.0677491887
Bq         3.2462714766    -3.0887288037    -0.0556325635
Bq         3.2407682399    -3.0405323123    -0.0435159383
Bq         3.2352650032    -2.9923358210    -0.0313993130
Bq         3.2297617665    -2.9441393296    -0.0192826878
Bq         3.2242585298    -2.8959428383    -0.0071660626
Bq         3.2187552932    -2.8477463469     0.0049505626
Bq         3.2132520565    -2.7995498555     0.0170671879
Bq         3.2077488198    -2.7513533642     0.0291838131
Bq         3.2022455831    -2.7031568728     0.0413004383
Bq         3.1967423464    -2.6549603815     0.0534170636
Bq         3.1912391097    -2.6067638901     0.0655336888
Bq         3.1857358730    -2.5585673988     0.0776503140
Bq         3.1802326363    -2.5103709074     0.0897669393
Bq         3.1747293997    -2.4621744160     0.1018835645
Bq         3.1692261630    -2.4139779247     0.1140001897
Bq         3.1637229263    -2.3657814333     0.1261168149
Bq         3.1582196896    -2.3175849420     0.1382334402
Bq         3.1527164529    -2.2693884506     0.1503500654
Bq         3.1472132162    -2.2211919593     0.1624666906
Bq         3.1417099795    -2.1729954679     0.1745833159
Bq         3.1362067429    -2.1247989766     0.1866999411
Bq         3.1307035062    -2.0766024852     0.1988165663
Bq         3.1252002695    -2.0284059938     0.2109331915
Bq         3.1196970328    -1.9802095025     0.2230498168
Bq         3.1141937961    -1.9320130111     0.2351664420
Bq         3.1086905594    -1.8838165198     0.2472830672
Bq         3.1031873227    -1.8356200284     0.2593996925
Bq         3.0976840861    -1.7874235371     0.2715163177
Bq         3.0921808494    -1.7392270457     0.2836329429
Bq         3.0866776127    -1.6910305543     0.2957495681
Bq         3.0811743760    -1.6428340630     0.3078661934
Bq         3.0756711393    -1.5946375716     0.3199828186
Bq         3.0701679026    -1.5464410803     0.3320994438
Bq         3.0646646659    -1.4982445889     0.3442160691
Bq         3.0591614293    -1.4500480976     0.3563326943
Bq         3.0536581926    -1.4018516062     0.3684493195
Bq         3.0481549559    -1.3536551149     0.3805659447
Bq         3.0426517192    -1.3054586235     0.3926825700
Bq         3.0371484825    -1.2572621321     0.4047991952
Bq         3.0316452458    -1.2090656408     0.4169158204
Bq         3.0261420091    -1.1608691494     0.4290324457
Bq         3.0206387725    -1.1126726581     0.4411490709
Bq         3.0151355358    -1.0644761667     0.4532656961
Bq         3.0096322991    -1.0162796754     0.4653823214
Bq         3.0041290624    -0.9680831840     0.4774989466
Bq         2.9986258257    -0.9198866927     0.4896155718
Bq         2.9931225890    -0.8716902013     0.5017321970
Bq         2.9876193523    -0.8234937099     0.5138488223
Bq         2.9821161157    -0.7752972186     0.5259654475
Bq         2.9766128790    -0.7271007272     0.5380820727
Bq         2.9711096423    -0.6789042359     0.5501986980
Bq         2.9656064056    -0.6307077445     0.5623153232
Bq         2.9601031689    -0.5825112532     0.5744319484
Bq         2.9545999322    -0.5343147618     0.5865485736
Bq         2.9490966955    -0.4861182704     0.5986651989
Bq         2.9435934588    -0.4379217791     0.6107818241
Bq         2.9380902222    -0.3897252877     0.6228984493
Bq         2.9325869855    -0.3415287964     0.6350150746
Bq         2.9270837488    -0.2933323050     0.6471316998
Bq         2.9215805121    -0.2451358137     0.6592483250
Bq         2.9160772754    -0.1969393223     0.6713649502
Bq         2.9105740387    -0.1487428310     0.6834815755
Bq         2.9050708020    -0.1005463396     0.6955982007
Bq         2.8995675654    -0.0523498482     0.7077148259
Bq         2.8940643287    -0.0041533569     0.7198314512
Bq         2.8885610920     0.0440431345     0.7319480764
Bq         3.4844091972    -4.7756060011    -0.4590377527
Bq         3.4789059606    -4.7274095098    -0.4469211275
Bq         3.4734027239    -4.6792130184    -0.4348045022
Bq         3.4678994872    -4.6310165271    -0.4226878770
Bq         3.4623962505    -4.5828200357    -0.4105712518
Bq         3.4568930138    -4.5346235444    -0.3984546266
Bq         3.4513897771    -4.4864270530    -0.3863380013
Bq         3.4458865404    -4.4382305616    -0.3742213761
Bq         3.4403833038    -4.3900340703    -0.3621047509
Bq         3.4348800671    -4.3418375789    -0.3499881256

1
2
3
4
5
6
7
8
9
10
11
12
13
14
15
16
17
18
19
20
21
22
23
24
25
26
27
28
29
30
31
32
33
34
35
36
37
38
39
40
41
42
43
44
45
46
47
48
49
50
51
52
53
54
55
56
57
58
59
60
61
62
63
64
65
66
67
68
69
70
71
72
73
74
75
76
77
78
79
80
81
82
83
84
85
86
87
88
89
90
91
92
93
94
95
96
97
98
99
100
101
102
103
104
105
106
107
108
109
110
111
112
113
114
115
116
117
118
119
120
121
122
123
124
125
126
127
128
129
130
131
132
133
134
135
136
137
138
139
140
141
142
143
144
145
146
147
148
149
150
151
152
153
154
155
156
157
158
159
160
161
162
163
164
165
166
167
168
169
170
171
172
173
174
175
176
177
178
179
180
181
182
183
184
185
186
187
188
189
190
191
192
193
194
195
196
197
198
199
200
201
202
203
204
205
206
207
208
209
210
211
212
213
214
215
216
217
218
219
220
221
222
223
224
225
226
227
228
229
230
231
232
233
234
235
236

