%nproc=8
%mem=1000MB
# rb3lyp/6-311+g** NMR geom=connectivity

Title

0 1
C    -4.0500558   -0.5771862    0.8136712
H    -5.0263804   -1.0082727    1.0024760
C    -3.9381552    0.6617804    0.2400876
H    -4.8252424    1.2338890   -0.0111295
C    -2.6768410    1.2433246    0.0057578
C    -1.4974121    0.5051527    0.2848253
C    -1.6508332   -0.7338728    0.9404026
H    -0.7713646   -1.2730967    1.2633753
C    -2.8898548   -1.2624035    1.1994307
H    -2.9683706   -2.2124563    1.7152676
C    -2.5773185    2.5963696   -0.4192930
H    -3.4870728    3.1412239   -0.6474055
C    -1.3741895    3.2147896   -0.4364030
H    -1.2997315    4.2742019   -0.6578144
C    -0.1719488    2.4994090   -0.1734588
C    -0.2043917    1.1018437    0.0192689
C     1.0513491    3.2042560   -0.0676222
H     1.0427344    4.2819499   -0.1896997
C     2.1942091    2.5487446    0.2579577
H     3.1168527    3.0912848    0.4334727
C     2.2216473    1.1336562    0.2934990
C     1.0486931    0.3945528    0.0302412
C     3.4483363    0.4614633    0.5573939
H     4.3095794    1.0606054    0.8334846
C     3.5427346   -0.8855926    0.4749463
H     4.4731467   -1.3939704    0.7038822
C     2.4490052   -1.6474447   -0.0196319
C     1.2150704   -1.0057258   -0.3013573
C     0.2531113   -1.7434440   -1.0216591
H    -0.6541356   -1.2535051   -1.3462847
C     0.4494193   -3.0628597   -1.3413779
H    -0.3083162   -3.5944309   -1.9054060
C     1.6251726   -3.7207967   -0.9552541
H     1.7670048   -4.7687404   -1.1927019
C     2.6109872   -3.0144177   -0.3183050
H     3.5525612   -3.4902813   -0.0646367
Bq         0.4130434253     0.0182913932     0.4195071406
Bq         0.4135299024     0.0667613091     0.4072421259
Bq         0.4140163795     0.1152312251     0.3949771112
Bq         0.4145028566     0.1637011411     0.3827120965
Bq         0.4149893338     0.2121710570     0.3704470817
Bq         0.4154758109     0.2606409730     0.3581820670
Bq         0.4159622880     0.3091108890     0.3459170523
Bq         0.4164487651     0.3575808049     0.3336520376
Bq         0.4169352422     0.4060507209     0.3213870229
Bq         0.4174217193     0.4545206369     0.3091220082
Bq         0.4179081964     0.5029905529     0.2968569935
Bq         0.4183946735     0.5514604688     0.2845919788
Bq         0.4188811507     0.5999303848     0.2723269640
Bq         0.4193676278     0.6484003008     0.2600619493
Bq         0.4198541049     0.6968702167     0.2477969346
Bq         0.4203405820     0.7453401327     0.2355319199
Bq         0.4208270591     0.7938100487     0.2232669052
Bq         0.4213135362     0.8422799646     0.2110018905
Bq         0.4218000133     0.8907498806     0.1987368758
Bq         0.4222864904     0.9392197966     0.1864718610
Bq         0.4227729676     0.9876897125     0.1742068463
Bq         0.4232594447     1.0361596285     0.1619418316
Bq         0.4237459218     1.0846295445     0.1496768169
Bq         0.4242323989     1.1330994605     0.1374118022
Bq         0.4247188760     1.1815693764     0.1251467875
Bq         0.4252053531     1.2300392924     0.1128817728
Bq         0.4256918302     1.2785092084     0.1006167580
Bq         0.4261783073     1.3269791243     0.0883517433
Bq         0.4266647845     1.3754490403     0.0760867286
Bq         0.4271512616     1.4239189563     0.0638217139
Bq         0.4276377387     1.4723888722     0.0515566992
Bq         0.4281242158     1.5208587882     0.0392916845
Bq         0.4286106929     1.5693287042     0.0270266698
Bq         0.4290971700     1.6177986202     0.0147616551
Bq         0.4295836471     1.6662685361     0.0024966403
Bq         0.4300701242     1.7147384521    -0.0097683744
Bq         0.4305566014     1.7632083681    -0.0220333891
Bq         0.4310430785     1.8116782840    -0.0342984038
Bq         0.4315295556     1.8601482000    -0.0465634185
Bq         0.4320160327     1.9086181160    -0.0588284332
Bq         0.4325025098     1.9570880319    -0.0710934479
Bq         0.4329889869     2.0055579479    -0.0833584627
Bq         0.4334754640     2.0540278639    -0.0956234774
Bq         0.4339619411     2.1024977798    -0.1078884921
Bq         0.4344484182     2.1509676958    -0.1201535068
Bq         0.4349348954     2.1994376118    -0.1324185215
Bq         0.4354213725     2.2479075278    -0.1446835362
Bq         0.4359078496     2.2963774437    -0.1569485509
Bq         0.4363943267     2.3448473597    -0.1692135657
Bq         0.4368808038     2.3933172757    -0.1814785804
Bq         0.4373672809     2.4417871916    -0.1937435951
Bq         0.4378537580     2.4902571076    -0.2060086098
Bq         0.4383402351     2.5387270236    -0.2182736245
Bq         0.4388267123     2.5871969395    -0.2305386392
Bq         0.4393131894     2.6356668555    -0.2428036539
Bq         0.4397996665     2.6841367715    -0.2550686686
Bq         0.4402861436     2.7326066875    -0.2673336834
Bq         0.4407726207     2.7810766034    -0.2795986981
Bq         0.4412590978     2.8295465194    -0.2918637128
Bq         0.4417455749     2.8780164354    -0.3041287275
Bq         0.4422320520     2.9264863513    -0.3163937422
Bq         0.4427185292     2.9749562673    -0.3286587569
Bq         0.4432050063     3.0234261833    -0.3409237716
Bq         0.4436914834     3.0718960992    -0.3531887864
Bq         0.4441779605     3.1203660152    -0.3654538011
Bq         0.4446644376     3.1688359312    -0.3777188158
Bq         0.4451509147     3.2173058471    -0.3899838305
Bq         0.4456373918     3.2657757631    -0.4022488452
Bq         0.4461238689     3.3142456791    -0.4145138599
Bq         0.4466103461     3.3627155951    -0.4267788746
Bq         0.4470968232     3.4111855110    -0.4390438893
Bq         0.4475833003     3.4596554270    -0.4513089041
Bq         0.4480697774     3.5081253430    -0.4635739188
Bq         0.4485562545     3.5565952589    -0.4758389335
Bq         0.4490427316     3.6050651749    -0.4881039482
Bq         0.4495292087     3.6535350909    -0.5003689629
Bq         0.4500156858     3.7020050068    -0.5126339776
Bq         0.4505021630     3.7504749228    -0.5248989923
Bq         0.4509886401     3.7989448388    -0.5371640071
Bq         0.4514751172     3.8474147548    -0.5494290218
Bq         0.4519615943     3.8958846707    -0.5616940365
Bq         0.4524480714     3.9443545867    -0.5739590512
Bq         0.4529345485     3.9928245027    -0.5862240659
Bq         0.4534210256     4.0412944186    -0.5984890806
Bq         0.4539075027     4.0897643346    -0.6107540953
Bq         0.4543939799     4.1382342506    -0.6230191101
Bq         0.4548804570     4.1867041665    -0.6352841248
Bq         0.4553669341     4.2351740825    -0.6475491395
Bq         0.4558534112     4.2836439985    -0.6598141542
Bq         0.4571664159    -0.5633475985     0.5686689491
Bq         0.4576528930    -0.5148776825     0.5564039344
Bq         0.4581393701    -0.4664077665     0.5441389197
Bq         0.4586258472    -0.4179378506     0.5318739050
Bq         0.4591123243    -0.3694679346     0.5196088902
Bq         0.4595988014    -0.3209980186     0.5073438755
Bq         0.4600852786    -0.2725281027     0.4950788608
Bq         0.4605717557    -0.2240581867     0.4828138461
Bq         0.4610582328    -0.1755882707     0.4705488314
Bq         0.4615447099    -0.1271183548     0.4582838167
Bq         0.4620311870    -0.0786484388     0.4460188020
Bq         0.4625176641    -0.0301785228     0.4337537872
Bq         0.4630041412     0.0182913932     0.4214887725
Bq         0.4634906183     0.0667613091     0.4092237578
Bq         0.4639770955     0.1152312251     0.3969587431
Bq         0.4644635726     0.1637011411     0.3846937284
Bq         0.4649500497     0.2121710570     0.3724287137
Bq         0.4654365268     0.2606409730     0.3601636990
Bq         0.4659230039     0.3091108890     0.3478986843
Bq         0.4664094810     0.3575808049     0.3356336695
Bq         0.4668959581     0.4060507209     0.3233686548
Bq         0.4673824352     0.4545206369     0.3111036401
Bq         0.4678689124     0.5029905529     0.2988386254
Bq         0.4683553895     0.5514604688     0.2865736107
Bq         0.4688418666     0.5999303848     0.2743085960
Bq         0.4693283437     0.6484003008     0.2620435813
Bq         0.4698148208     0.6968702167     0.2497785665
Bq         0.4703012979     0.7453401327     0.2375135518
Bq         0.4707877750     0.7938100487     0.2252485371
Bq         0.4712742521     0.8422799646     0.2129835224
Bq         0.4717607292     0.8907498806     0.2007185077
Bq         0.4722472064     0.9392197966     0.1884534930
Bq         0.4727336835     0.9876897125     0.1761884783
Bq         0.4732201606     1.0361596285     0.1639234635
Bq         0.4737066377     1.0846295445     0.1516584488
Bq         0.4741931148     1.1330994605     0.1393934341
Bq         0.4746795919     1.1815693764     0.1271284194
Bq         0.4751660690     1.2300392924     0.1148634047
Bq         0.4756525461     1.2785092084     0.1025983900
Bq         0.4761390233     1.3269791243     0.0903333753
Bq         0.4766255004     1.3754490403     0.0780683606
Bq         0.4771119775     1.4239189563     0.0658033458
Bq         0.4775984546     1.4723888722     0.0535383311
Bq         0.4780849317     1.5208587882     0.0412733164
Bq         0.4785714088     1.5693287042     0.0290083017
Bq         0.4790578859     1.6177986202     0.0167432870
Bq         0.4795443630     1.6662685361     0.0044782723
Bq         0.4800308402     1.7147384521    -0.0077867424
Bq         0.4805173173     1.7632083681    -0.0200517572
Bq         0.4810037944     1.8116782840    -0.0323167719
Bq         0.4814902715     1.8601482000    -0.0445817866
Bq         0.4819767486     1.9086181160    -0.0568468013
Bq         0.4824632257     1.9570880319    -0.0691118160
Bq         0.4829497028     2.0055579479    -0.0813768307
Bq         0.4834361799     2.0540278639    -0.0936418454
Bq         0.4839226571     2.1024977798    -0.1059068602
Bq         0.4844091342     2.1509676958    -0.1181718749
Bq         0.4848956113     2.1994376118    -0.1304368896
Bq         0.4853820884     2.2479075278    -0.1427019043
Bq         0.4858685655     2.2963774437    -0.1549669190
Bq         0.4863550426     2.3448473597    -0.1672319337
Bq         0.4868415197     2.3933172757    -0.1794969484
Bq         0.4873279968     2.4417871916    -0.1917619631
Bq         0.4878144740     2.4902571076    -0.2040269779
Bq         0.4883009511     2.5387270236    -0.2162919926
Bq         0.4887874282     2.5871969395    -0.2285570073
Bq         0.4892739053     2.6356668555    -0.2408220220
Bq         0.4897603824     2.6841367715    -0.2530870367
Bq         0.4902468595     2.7326066875    -0.2653520514
Bq         0.4907333366     2.7810766034    -0.2776170661
Bq         0.4912198137     2.8295465194    -0.2898820809
Bq         0.4917062908     2.8780164354    -0.3021470956
Bq         0.4921927680     2.9264863513    -0.3144121103
Bq         0.4926792451     2.9749562673    -0.3266771250
Bq         0.4931657222     3.0234261833    -0.3389421397
Bq         0.4936521993     3.0718960992    -0.3512071544
Bq         0.4941386764     3.1203660152    -0.3634721691
Bq         0.4946251535     3.1688359312    -0.3757371838
Bq         0.4951116306     3.2173058471    -0.3880021986
Bq         0.4955981077     3.2657757631    -0.4002672133
Bq         0.4960845849     3.3142456791    -0.4125322280
Bq         0.4965710620     3.3627155951    -0.4247972427
Bq         0.4970575391     3.4111855110    -0.4370622574
Bq         0.4975440162     3.4596554270    -0.4493272721
Bq         0.4980304933     3.5081253430    -0.4615922868
Bq         0.4985169704     3.5565952589    -0.4738573016
Bq         0.4990034475     3.6050651749    -0.4861223163
Bq         0.4994899246     3.6535350909    -0.4983873310
Bq         0.4999764018     3.7020050068    -0.5106523457
Bq         0.5004628789     3.7504749228    -0.5229173604
Bq         0.5009493560     3.7989448388    -0.5351823751
Bq         0.5014358331     3.8474147548    -0.5474473898
Bq         0.5019223102     3.8958846707    -0.5597124046
Bq         0.5024087873     3.9443545867    -0.5719774193
Bq         0.5028952644     3.9928245027    -0.5842424340
Bq         0.5033817415     4.0412944186    -0.5965074487
Bq         0.5038682187     4.0897643346    -0.6087724634
Bq         0.5043546958     4.1382342506    -0.6210374781
Bq         0.5048411729     4.1867041665    -0.6333024928
Bq         0.5053276500     4.2351740825    -0.6455675075
Bq         0.5058141271     4.2836439985    -0.6578325223
Bq         0.5071271318    -0.5633475985     0.5706505810
Bq         0.5076136089    -0.5148776825     0.5583855663
Bq         0.5081000860    -0.4664077665     0.5461205516
Bq         0.5085865631    -0.4179378506     0.5338555369
Bq         0.5090730402    -0.3694679346     0.5215905222
Bq         0.5095595174    -0.3209980186     0.5093255075
Bq         0.5100459945    -0.2725281027     0.4970604927
Bq         0.5105324716    -0.2240581867     0.4847954780
Bq         0.5110189487    -0.1755882707     0.4725304633
Bq         0.5115054258    -0.1271183548     0.4602654486

1
2
3
4
5
6
7
8
9
10
11
12
13
14
15
16
17
18
19
20
21
22
23
24
25
26
27
28
29
30
31
32
33
34
35
36
37
38
39
40
41
42
43
44
45
46
47
48
49
50
51
52
53
54
55
56
57
58
59
60
61
62
63
64
65
66
67
68
69
70
71
72
73
74
75
76
77
78
79
80
81
82
83
84
85
86
87
88
89
90
91
92
93
94
95
96
97
98
99
100
101
102
103
104
105
106
107
108
109
110
111
112
113
114
115
116
117
118
119
120
121
122
123
124
125
126
127
128
129
130
131
132
133
134
135
136
137
138
139
140
141
142
143
144
145
146
147
148
149
150
151
152
153
154
155
156
157
158
159
160
161
162
163
164
165
166
167
168
169
170
171
172
173
174
175
176
177
178
179
180
181
182
183
184
185
186
187
188
189
190
191
192
193
194
195
196
197
198
199
200
201
202
203
204
205
206
207
208
209
210
211
212
213
214
215
216
217
218
219
220
221
222
223
224
225
226
227
228
229
230
231
232
233
234
235
236

