%nproc=8
%mem=1000MB
# rb3lyp/6-311+g** NMR geom=connectivity

Title

0 1
C    -4.0500558   -0.5771862    0.8136712
H    -5.0263804   -1.0082727    1.0024760
C    -3.9381552    0.6617804    0.2400876
H    -4.8252424    1.2338890   -0.0111295
C    -2.6768410    1.2433246    0.0057578
C    -1.4974121    0.5051527    0.2848253
C    -1.6508332   -0.7338728    0.9404026
H    -0.7713646   -1.2730967    1.2633753
C    -2.8898548   -1.2624035    1.1994307
H    -2.9683706   -2.2124563    1.7152676
C    -2.5773185    2.5963696   -0.4192930
H    -3.4870728    3.1412239   -0.6474055
C    -1.3741895    3.2147896   -0.4364030
H    -1.2997315    4.2742019   -0.6578144
C    -0.1719488    2.4994090   -0.1734588
C    -0.2043917    1.1018437    0.0192689
C     1.0513491    3.2042560   -0.0676222
H     1.0427344    4.2819499   -0.1896997
C     2.1942091    2.5487446    0.2579577
H     3.1168527    3.0912848    0.4334727
C     2.2216473    1.1336562    0.2934990
C     1.0486931    0.3945528    0.0302412
C     3.4483363    0.4614633    0.5573939
H     4.3095794    1.0606054    0.8334846
C     3.5427346   -0.8855926    0.4749463
H     4.4731467   -1.3939704    0.7038822
C     2.4490052   -1.6474447   -0.0196319
C     1.2150704   -1.0057258   -0.3013573
C     0.2531113   -1.7434440   -1.0216591
H    -0.6541356   -1.2535051   -1.3462847
C     0.4494193   -3.0628597   -1.3413779
H    -0.3083162   -3.5944309   -1.9054060
C     1.6251726   -3.7207967   -0.9552541
H     1.7670048   -4.7687404   -1.1927019
C     2.6109872   -3.0144177   -0.3183050
H     3.5525612   -3.4902813   -0.0646367
Bq         1.0067342910    -0.5633475985     0.5904669003
Bq         1.0072207681    -0.5148776825     0.5782018856
Bq         1.0077072452    -0.4664077665     0.5659368709
Bq         1.0081937223    -0.4179378506     0.5536718562
Bq         1.0086801994    -0.3694679346     0.5414068415
Bq         1.0091666765    -0.3209980186     0.5291418268
Bq         1.0096531536    -0.2725281027     0.5168768121
Bq         1.0101396307    -0.2240581867     0.5046117974
Bq         1.0106261079    -0.1755882707     0.4923467826
Bq         1.0111125850    -0.1271183548     0.4800817679
Bq         1.0115990621    -0.0786484388     0.4678167532
Bq         1.0120855392    -0.0301785228     0.4555517385
Bq         1.0125720163     0.0182913932     0.4432867238
Bq         1.0130584934     0.0667613091     0.4310217091
Bq         1.0135449705     0.1152312251     0.4187566944
Bq         1.0140314476     0.1637011411     0.4064916796
Bq         1.0145179248     0.2121710570     0.3942266649
Bq         1.0150044019     0.2606409730     0.3819616502
Bq         1.0154908790     0.3091108890     0.3696966355
Bq         1.0159773561     0.3575808049     0.3574316208
Bq         1.0164638332     0.4060507209     0.3451666061
Bq         1.0169503103     0.4545206369     0.3329015914
Bq         1.0174367874     0.5029905529     0.3206365766
Bq         1.0179232645     0.5514604688     0.3083715619
Bq         1.0184097417     0.5999303848     0.2961065472
Bq         1.0188962188     0.6484003008     0.2838415325
Bq         1.0193826959     0.6968702167     0.2715765178
Bq         1.0198691730     0.7453401327     0.2593115031
Bq         1.0203556501     0.7938100487     0.2470464884
Bq         1.0208421272     0.8422799646     0.2347814737
Bq         1.0213286043     0.8907498806     0.2225164589
Bq         1.0218150814     0.9392197966     0.2102514442
Bq         1.0223015586     0.9876897125     0.1979864295
Bq         1.0227880357     1.0361596285     0.1857214148
Bq         1.0232745128     1.0846295445     0.1734564001
Bq         1.0237609899     1.1330994605     0.1611913854
Bq         1.0242474670     1.1815693764     0.1489263707
Bq         1.0247339441     1.2300392924     0.1366613559
Bq         1.0252204212     1.2785092084     0.1243963412
Bq         1.0257068983     1.3269791243     0.1121313265
Bq         1.0261933755     1.3754490403     0.0998663118
Bq         1.0266798526     1.4239189563     0.0876012971
Bq         1.0271663297     1.4723888722     0.0753362824
Bq         1.0276528068     1.5208587882     0.0630712677
Bq         1.0281392839     1.5693287042     0.0508062530
Bq         1.0286257610     1.6177986202     0.0385412382
Bq         1.0291122381     1.6662685361     0.0262762235
Bq         1.0295987152     1.7147384521     0.0140112088
Bq         1.0300851923     1.7632083681     0.0017461941
Bq         1.0305716695     1.8116782840    -0.0105188206
Bq         1.0310581466     1.8601482000    -0.0227838353
Bq         1.0315446237     1.9086181160    -0.0350488500
Bq         1.0320311008     1.9570880319    -0.0473138648
Bq         1.0325175779     2.0055579479    -0.0595788795
Bq         1.0330040550     2.0540278639    -0.0718438942
Bq         1.0334905321     2.1024977798    -0.0841089089
Bq         1.0339770092     2.1509676958    -0.0963739236
Bq         1.0344634864     2.1994376118    -0.1086389383
Bq         1.0349499635     2.2479075278    -0.1209039530
Bq         1.0354364406     2.2963774437    -0.1331689678
Bq         1.0359229177     2.3448473597    -0.1454339825
Bq         1.0364093948     2.3933172757    -0.1576989972
Bq         1.0368958719     2.4417871916    -0.1699640119
Bq         1.0373823490     2.4902571076    -0.1822290266
Bq         1.0378688261     2.5387270236    -0.1944940413
Bq         1.0383553033     2.5871969395    -0.2067590560
Bq         1.0388417804     2.6356668555    -0.2190240707
Bq         1.0393282575     2.6841367715    -0.2312890855
Bq         1.0398147346     2.7326066875    -0.2435541002
Bq         1.0403012117     2.7810766034    -0.2558191149
Bq         1.0407876888     2.8295465194    -0.2680841296
Bq         1.0412741659     2.8780164354    -0.2803491443
Bq         1.0417606430     2.9264863513    -0.2926141590
Bq         1.0422471202     2.9749562673    -0.3048791737
Bq         1.0427335973     3.0234261833    -0.3171441885
Bq         1.0432200744     3.0718960992    -0.3294092032
Bq         1.0437065515     3.1203660152    -0.3416742179
Bq         1.0441930286     3.1688359312    -0.3539392326
Bq         1.0446795057     3.2173058471    -0.3662042473
Bq         1.0451659828     3.2657757631    -0.3784692620
Bq         1.0456524599     3.3142456791    -0.3907342767
Bq         1.0461389371     3.3627155951    -0.4029992915
Bq         1.0466254142     3.4111855110    -0.4152643062
Bq         1.0471118913     3.4596554270    -0.4275293209
Bq         1.0475983684     3.5081253430    -0.4397943356
Bq         1.0480848455     3.5565952589    -0.4520593503
Bq         1.0485713226     3.6050651749    -0.4643243650
Bq         1.0490577997     3.6535350909    -0.4765893797
Bq         1.0495442768     3.7020050068    -0.4888543944
Bq         1.0500307539     3.7504749228    -0.5011194092
Bq         1.0505172311     3.7989448388    -0.5133844239
Bq         1.0510037082     3.8474147548    -0.5256494386
Bq         1.0514901853     3.8958846707    -0.5379144533
Bq         1.0519766624     3.9443545867    -0.5501794680
Bq         1.0524631395     3.9928245027    -0.5624444827
Bq         1.0529496166     4.0412944186    -0.5747094974
Bq         1.0534360937     4.0897643346    -0.5869745122
Bq         1.0539225708     4.1382342506    -0.5992395269
Bq         1.0544090480     4.1867041665    -0.6115045416
Bq         1.0548955251     4.2351740825    -0.6237695563
Bq         1.0553820022     4.2836439985    -0.6360345710
Bq         1.0566950069    -0.5633475985     0.5924485323
Bq         1.0571814840    -0.5148776825     0.5801835176
Bq         1.0576679611    -0.4664077665     0.5679185029
Bq         1.0581544382    -0.4179378506     0.5556534881
Bq         1.0586409153    -0.3694679346     0.5433884734
Bq         1.0591273924    -0.3209980186     0.5311234587
Bq         1.0596138696    -0.2725281027     0.5188584440
Bq         1.0601003467    -0.2240581867     0.5065934293
Bq         1.0605868238    -0.1755882707     0.4943284146
Bq         1.0610733009    -0.1271183548     0.4820633999
Bq         1.0615597780    -0.0786484388     0.4697983851
Bq         1.0620462551    -0.0301785228     0.4575333704
Bq         1.0625327322     0.0182913932     0.4452683557
Bq         1.0630192093     0.0667613091     0.4330033410
Bq         1.0635056865     0.1152312251     0.4207383263
Bq         1.0639921636     0.1637011411     0.4084733116
Bq         1.0644786407     0.2121710570     0.3962082969
Bq         1.0649651178     0.2606409730     0.3839432821
Bq         1.0654515949     0.3091108890     0.3716782674
Bq         1.0659380720     0.3575808049     0.3594132527
Bq         1.0664245491     0.4060507209     0.3471482380
Bq         1.0669110262     0.4545206369     0.3348832233
Bq         1.0673975033     0.5029905529     0.3226182086
Bq         1.0678839805     0.5514604688     0.3103531939
Bq         1.0683704576     0.5999303848     0.2980881792
Bq         1.0688569347     0.6484003008     0.2858231644
Bq         1.0693434118     0.6968702167     0.2735581497
Bq         1.0698298889     0.7453401327     0.2612931350
Bq         1.0703163660     0.7938100487     0.2490281203
Bq         1.0708028431     0.8422799646     0.2367631056
Bq         1.0712893202     0.8907498806     0.2244980909
Bq         1.0717757974     0.9392197966     0.2122330762
Bq         1.0722622745     0.9876897125     0.1999680614
Bq         1.0727487516     1.0361596285     0.1877030467
Bq         1.0732352287     1.0846295445     0.1754380320
Bq         1.0737217058     1.1330994605     0.1631730173
Bq         1.0742081829     1.1815693764     0.1509080026
Bq         1.0746946600     1.2300392924     0.1386429879
Bq         1.0751811371     1.2785092084     0.1263779732
Bq         1.0756676143     1.3269791243     0.1141129585
Bq         1.0761540914     1.3754490403     0.1018479437
Bq         1.0766405685     1.4239189563     0.0895829290
Bq         1.0771270456     1.4723888722     0.0773179143
Bq         1.0776135227     1.5208587882     0.0650528996
Bq         1.0780999998     1.5693287042     0.0527878849
Bq         1.0785864769     1.6177986202     0.0405228702
Bq         1.0790729540     1.6662685361     0.0282578555
Bq         1.0795594312     1.7147384521     0.0159928407
Bq         1.0800459083     1.7632083681     0.0037278260
Bq         1.0805323854     1.8116782840    -0.0085371887
Bq         1.0810188625     1.8601482000    -0.0208022034
Bq         1.0815053396     1.9086181160    -0.0330672181
Bq         1.0819918167     1.9570880319    -0.0453322328
Bq         1.0824782938     2.0055579479    -0.0575972475
Bq         1.0829647709     2.0540278639    -0.0698622623
Bq         1.0834512481     2.1024977798    -0.0821272770
Bq         1.0839377252     2.1509676958    -0.0943922917
Bq         1.0844242023     2.1994376118    -0.1066573064
Bq         1.0849106794     2.2479075278    -0.1189223211
Bq         1.0853971565     2.2963774437    -0.1311873358
Bq         1.0858836336     2.3448473597    -0.1434523505
Bq         1.0863701107     2.3933172757    -0.1557173652
Bq         1.0868565878     2.4417871916    -0.1679823800
Bq         1.0873430649     2.4902571076    -0.1802473947
Bq         1.0878295421     2.5387270236    -0.1925124094
Bq         1.0883160192     2.5871969395    -0.2047774241
Bq         1.0888024963     2.6356668555    -0.2170424388
Bq         1.0892889734     2.6841367715    -0.2293074535
Bq         1.0897754505     2.7326066875    -0.2415724682
Bq         1.0902619276     2.7810766034    -0.2538374830
Bq         1.0907484047     2.8295465194    -0.2661024977
Bq         1.0912348818     2.8780164354    -0.2783675124
Bq         1.0917213590     2.9264863513    -0.2906325271
Bq         1.0922078361     2.9749562673    -0.3028975418
Bq         1.0926943132     3.0234261833    -0.3151625565
Bq         1.0931807903     3.0718960992    -0.3274275712
Bq         1.0936672674     3.1203660152    -0.3396925860
Bq         1.0941537445     3.1688359312    -0.3519576007
Bq         1.0946402216     3.2173058471    -0.3642226154
Bq         1.0951266987     3.2657757631    -0.3764876301
Bq         1.0956131759     3.3142456791    -0.3887526448
Bq         1.0960996530     3.3627155951    -0.4010176595
Bq         1.0965861301     3.4111855110    -0.4132826742
Bq         1.0970726072     3.4596554270    -0.4255476889
Bq         1.0975590843     3.5081253430    -0.4378127037
Bq         1.0980455614     3.5565952589    -0.4500777184
Bq         1.0985320385     3.6050651749    -0.4623427331
Bq         1.0990185156     3.6535350909    -0.4746077478
Bq         1.0995049928     3.7020050068    -0.4868727625
Bq         1.0999914699     3.7504749228    -0.4991377772
Bq         1.1004779470     3.7989448388    -0.5114027919
Bq         1.1009644241     3.8474147548    -0.5236678067
Bq         1.1014509012     3.8958846707    -0.5359328214
Bq         1.1019373783     3.9443545867    -0.5481978361
Bq         1.1024238554     3.9928245027    -0.5604628508
Bq         1.1029103325     4.0412944186    -0.5727278655
Bq         1.1033968097     4.0897643346    -0.5849928802
Bq         1.1038832868     4.1382342506    -0.5972578949
Bq         1.1043697639     4.1867041665    -0.6095229096

1
2
3
4
5
6
7
8
9
10
11
12
13
14
15
16
17
18
19
20
21
22
23
24
25
26
27
28
29
30
31
32
33
34
35
36
37
38
39
40
41
42
43
44
45
46
47
48
49
50
51
52
53
54
55
56
57
58
59
60
61
62
63
64
65
66
67
68
69
70
71
72
73
74
75
76
77
78
79
80
81
82
83
84
85
86
87
88
89
90
91
92
93
94
95
96
97
98
99
100
101
102
103
104
105
106
107
108
109
110
111
112
113
114
115
116
117
118
119
120
121
122
123
124
125
126
127
128
129
130
131
132
133
134
135
136
137
138
139
140
141
142
143
144
145
146
147
148
149
150
151
152
153
154
155
156
157
158
159
160
161
162
163
164
165
166
167
168
169
170
171
172
173
174
175
176
177
178
179
180
181
182
183
184
185
186
187
188
189
190
191
192
193
194
195
196
197
198
199
200
201
202
203
204
205
206
207
208
209
210
211
212
213
214
215
216
217
218
219
220
221
222
223
224
225
226
227
228
229
230
231
232
233
234
235
236

