%nproc=8
%mem=1000MB
# rb3lyp/6-311+g** NMR geom=connectivity

Title

0 1
C    -4.0500558   -0.5771862    0.8136712
H    -5.0263804   -1.0082727    1.0024760
C    -3.9381552    0.6617804    0.2400876
H    -4.8252424    1.2338890   -0.0111295
C    -2.6768410    1.2433246    0.0057578
C    -1.4974121    0.5051527    0.2848253
C    -1.6508332   -0.7338728    0.9404026
H    -0.7713646   -1.2730967    1.2633753
C    -2.8898548   -1.2624035    1.1994307
H    -2.9683706   -2.2124563    1.7152676
C    -2.5773185    2.5963696   -0.4192930
H    -3.4870728    3.1412239   -0.6474055
C    -1.3741895    3.2147896   -0.4364030
H    -1.2997315    4.2742019   -0.6578144
C    -0.1719488    2.4994090   -0.1734588
C    -0.2043917    1.1018437    0.0192689
C     1.0513491    3.2042560   -0.0676222
H     1.0427344    4.2819499   -0.1896997
C     2.1942091    2.5487446    0.2579577
H     3.1168527    3.0912848    0.4334727
C     2.2216473    1.1336562    0.2934990
C     1.0486931    0.3945528    0.0302412
C     3.4483363    0.4614633    0.5573939
H     4.3095794    1.0606054    0.8334846
C     3.5427346   -0.8855926    0.4749463
H     4.4731467   -1.3939704    0.7038822
C     2.4490052   -1.6474447   -0.0196319
C     1.2150704   -1.0057258   -0.3013573
C     0.2531113   -1.7434440   -1.0216591
H    -0.6541356   -1.2535051   -1.3462847
C     0.4494193   -3.0628597   -1.3413779
H    -0.3083162   -3.5944309   -1.9054060
C     1.6251726   -3.7207967   -0.9552541
H     1.7670048   -4.7687404   -1.1927019
C     2.6109872   -3.0144177   -0.3183050
H     3.5525612   -3.4902813   -0.0646367
Bq        -0.3785443956     0.7938100487     0.1915607943
Bq        -0.3780579184     0.8422799646     0.1792957796
Bq        -0.3775714413     0.8907498806     0.1670307648
Bq        -0.3770849642     0.9392197966     0.1547657501
Bq        -0.3765984871     0.9876897125     0.1425007354
Bq        -0.3761120100     1.0361596285     0.1302357207
Bq        -0.3756255329     1.0846295445     0.1179707060
Bq        -0.3751390558     1.1330994605     0.1057056913
Bq        -0.3746525787     1.1815693764     0.0934406766
Bq        -0.3741661015     1.2300392924     0.0811756618
Bq        -0.3736796244     1.2785092084     0.0689106471
Bq        -0.3731931473     1.3269791243     0.0566456324
Bq        -0.3727066702     1.3754490403     0.0443806177
Bq        -0.3722201931     1.4239189563     0.0321156030
Bq        -0.3717337160     1.4723888722     0.0198505883
Bq        -0.3712472389     1.5208587882     0.0075855736
Bq        -0.3707607618     1.5693287042    -0.0046794411
Bq        -0.3702742846     1.6177986202    -0.0169444559
Bq        -0.3697878075     1.6662685361    -0.0292094706
Bq        -0.3693013304     1.7147384521    -0.0414744853
Bq        -0.3688148533     1.7632083681    -0.0537395000
Bq        -0.3683283762     1.8116782840    -0.0660045147
Bq        -0.3678418991     1.8601482000    -0.0782695294
Bq        -0.3673554220     1.9086181160    -0.0905345441
Bq        -0.3668689449     1.9570880319    -0.1027995589
Bq        -0.3663824678     2.0055579479    -0.1150645736
Bq        -0.3658959906     2.0540278639    -0.1273295883
Bq        -0.3654095135     2.1024977798    -0.1395946030
Bq        -0.3649230364     2.1509676958    -0.1518596177
Bq        -0.3644365593     2.1994376118    -0.1641246324
Bq        -0.3639500822     2.2479075278    -0.1763896471
Bq        -0.3634636051     2.2963774437    -0.1886546618
Bq        -0.3629771280     2.3448473597    -0.2009196766
Bq        -0.3624906509     2.3933172757    -0.2131846913
Bq        -0.3620041737     2.4417871916    -0.2254497060
Bq        -0.3615176966     2.4902571076    -0.2377147207
Bq        -0.3610312195     2.5387270236    -0.2499797354
Bq        -0.3605447424     2.5871969395    -0.2622447501
Bq        -0.3600582653     2.6356668555    -0.2745097648
Bq        -0.3595717882     2.6841367715    -0.2867747796
Bq        -0.3590853111     2.7326066875    -0.2990397943
Bq        -0.3585988340     2.7810766034    -0.3113048090
Bq        -0.3581123568     2.8295465194    -0.3235698237
Bq        -0.3576258797     2.8780164354    -0.3358348384
Bq        -0.3571394026     2.9264863513    -0.3480998531
Bq        -0.3566529255     2.9749562673    -0.3603648678
Bq        -0.3561664484     3.0234261833    -0.3726298826
Bq        -0.3556799713     3.0718960992    -0.3848948973
Bq        -0.3551934942     3.1203660152    -0.3971599120
Bq        -0.3547070171     3.1688359312    -0.4094249267
Bq        -0.3542205399     3.2173058471    -0.4216899414
Bq        -0.3537340628     3.2657757631    -0.4339549561
Bq        -0.3532475857     3.3142456791    -0.4462199708
Bq        -0.3527611086     3.3627155951    -0.4584849855
Bq        -0.3522746315     3.4111855110    -0.4707500003
Bq        -0.3517881544     3.4596554270    -0.4830150150
Bq        -0.3513016773     3.5081253430    -0.4952800297
Bq        -0.3508152002     3.5565952589    -0.5075450444
Bq        -0.3503287230     3.6050651749    -0.5198100591
Bq        -0.3498422459     3.6535350909    -0.5320750738
Bq        -0.3493557688     3.7020050068    -0.5443400885
Bq        -0.3488692917     3.7504749228    -0.5566051033
Bq        -0.3483828146     3.7989448388    -0.5688701180
Bq        -0.3478963375     3.8474147548    -0.5811351327
Bq        -0.3474098604     3.8958846707    -0.5934001474
Bq        -0.3469233833     3.9443545867    -0.6056651621
Bq        -0.3464369062     3.9928245027    -0.6179301768
Bq        -0.3459504290     4.0412944186    -0.6301951915
Bq        -0.3454639519     4.0897643346    -0.6424602063
Bq        -0.3449774748     4.1382342506    -0.6547252210
Bq        -0.3444909977     4.1867041665    -0.6669902357
Bq        -0.3440045206     4.2351740825    -0.6792552504
Bq        -0.3435180435     4.2836439985    -0.6915202651
Bq        -0.3422050388    -0.5633475985     0.5369628382
Bq        -0.3417185617    -0.5148776825     0.5246978235
Bq        -0.3412320846    -0.4664077665     0.5124328088
Bq        -0.3407456074    -0.4179378506     0.5001677940
Bq        -0.3402591303    -0.3694679346     0.4879027793
Bq        -0.3397726532    -0.3209980186     0.4756377646
Bq        -0.3392861761    -0.2725281027     0.4633727499
Bq        -0.3387996990    -0.2240581867     0.4511077352
Bq        -0.3383132219    -0.1755882707     0.4388427205
Bq        -0.3378267448    -0.1271183548     0.4265777058
Bq        -0.3373402677    -0.0786484388     0.4143126910
Bq        -0.3368537905    -0.0301785228     0.4020476763
Bq        -0.3363673134     0.0182913932     0.3897826616
Bq        -0.3358808363     0.0667613091     0.3775176469
Bq        -0.3353943592     0.1152312251     0.3652526322
Bq        -0.3349078821     0.1637011411     0.3529876175
Bq        -0.3344214050     0.2121710570     0.3407226028
Bq        -0.3339349279     0.2606409730     0.3284575881
Bq        -0.3334484508     0.3091108890     0.3161925733
Bq        -0.3329619736     0.3575808049     0.3039275586
Bq        -0.3324754965     0.4060507209     0.2916625439
Bq        -0.3319890194     0.4545206369     0.2793975292
Bq        -0.3315025423     0.5029905529     0.2671325145
Bq        -0.3310160652     0.5514604688     0.2548674998
Bq        -0.3305295881     0.5999303848     0.2426024851
Bq        -0.3300431110     0.6484003008     0.2303374703
Bq        -0.3295566339     0.6968702167     0.2180724556
Bq        -0.3290701568     0.7453401327     0.2058074409
Bq        -0.3285836796     0.7938100487     0.1935424262
Bq        -0.3280972025     0.8422799646     0.1812774115
Bq        -0.3276107254     0.8907498806     0.1690123968
Bq        -0.3271242483     0.9392197966     0.1567473821
Bq        -0.3266377712     0.9876897125     0.1444823673
Bq        -0.3261512941     1.0361596285     0.1322173526
Bq        -0.3256648170     1.0846295445     0.1199523379
Bq        -0.3251783399     1.1330994605     0.1076873232
Bq        -0.3246918627     1.1815693764     0.0954223085
Bq        -0.3242053856     1.2300392924     0.0831572938
Bq        -0.3237189085     1.2785092084     0.0708922791
Bq        -0.3232324314     1.3269791243     0.0586272644
Bq        -0.3227459543     1.3754490403     0.0463622496
Bq        -0.3222594772     1.4239189563     0.0340972349
Bq        -0.3217730001     1.4723888722     0.0218322202
Bq        -0.3212865230     1.5208587882     0.0095672055
Bq        -0.3208000458     1.5693287042    -0.0026978092
Bq        -0.3203135687     1.6177986202    -0.0149628239
Bq        -0.3198270916     1.6662685361    -0.0272278386
Bq        -0.3193406145     1.7147384521    -0.0394928534
Bq        -0.3188541374     1.7632083681    -0.0517578681
Bq        -0.3183676603     1.8116782840    -0.0640228828
Bq        -0.3178811832     1.8601482000    -0.0762878975
Bq        -0.3173947061     1.9086181160    -0.0885529122
Bq        -0.3169082289     1.9570880319    -0.1008179269
Bq        -0.3164217518     2.0055579479    -0.1130829416
Bq        -0.3159352747     2.0540278639    -0.1253479563
Bq        -0.3154487976     2.1024977798    -0.1376129711
Bq        -0.3149623205     2.1509676958    -0.1498779858
Bq        -0.3144758434     2.1994376118    -0.1621430005
Bq        -0.3139893663     2.2479075278    -0.1744080152
Bq        -0.3135028892     2.2963774437    -0.1866730299
Bq        -0.3130164120     2.3448473597    -0.1989380446
Bq        -0.3125299349     2.3933172757    -0.2112030593
Bq        -0.3120434578     2.4417871916    -0.2234680741
Bq        -0.3115569807     2.4902571076    -0.2357330888
Bq        -0.3110705036     2.5387270236    -0.2479981035
Bq        -0.3105840265     2.5871969395    -0.2602631182
Bq        -0.3100975494     2.6356668555    -0.2725281329
Bq        -0.3096110723     2.6841367715    -0.2847931476
Bq        -0.3091245952     2.7326066875    -0.2970581623
Bq        -0.3086381180     2.7810766034    -0.3093231771
Bq        -0.3081516409     2.8295465194    -0.3215881918
Bq        -0.3076651638     2.8780164354    -0.3338532065
Bq        -0.3071786867     2.9264863513    -0.3461182212
Bq        -0.3066922096     2.9749562673    -0.3583832359
Bq        -0.3062057325     3.0234261833    -0.3706482506
Bq        -0.3057192554     3.0718960992    -0.3829132653
Bq        -0.3052327783     3.1203660152    -0.3951782800
Bq        -0.3047463011     3.1688359312    -0.4074432948
Bq        -0.3042598240     3.2173058471    -0.4197083095
Bq        -0.3037733469     3.2657757631    -0.4319733242
Bq        -0.3032868698     3.3142456791    -0.4442383389
Bq        -0.3028003927     3.3627155951    -0.4565033536
Bq        -0.3023139156     3.4111855110    -0.4687683683
Bq        -0.3018274385     3.4596554270    -0.4810333830
Bq        -0.3013409614     3.5081253430    -0.4932983978
Bq        -0.3008544842     3.5565952589    -0.5055634125
Bq        -0.3003680071     3.6050651749    -0.5178284272
Bq        -0.2998815300     3.6535350909    -0.5300934419
Bq        -0.2993950529     3.7020050068    -0.5423584566
Bq        -0.2989085758     3.7504749228    -0.5546234713
Bq        -0.2984220987     3.7989448388    -0.5668884860
Bq        -0.2979356216     3.8474147548    -0.5791535008
Bq        -0.2974491445     3.8958846707    -0.5914185155
Bq        -0.2969626673     3.9443545867    -0.6036835302
Bq        -0.2964761902     3.9928245027    -0.6159485449
Bq        -0.2959897131     4.0412944186    -0.6282135596
Bq        -0.2955032360     4.0897643346    -0.6404785743
Bq        -0.2950167589     4.1382342506    -0.6527435890
Bq        -0.2945302818     4.1867041665    -0.6650086037
Bq        -0.2940438047     4.2351740825    -0.6772736185
Bq        -0.2935573276     4.2836439985    -0.6895386332
Bq        -0.2922443229    -0.5633475985     0.5389444701
Bq        -0.2917578458    -0.5148776825     0.5266794554
Bq        -0.2912713686    -0.4664077665     0.5144144407
Bq        -0.2907848915    -0.4179378506     0.5021494260
Bq        -0.2902984144    -0.3694679346     0.4898844113
Bq        -0.2898119373    -0.3209980186     0.4776193965
Bq        -0.2893254602    -0.2725281027     0.4653543818
Bq        -0.2888389831    -0.2240581867     0.4530893671
Bq        -0.2883525060    -0.1755882707     0.4408243524
Bq        -0.2878660289    -0.1271183548     0.4285593377
Bq        -0.2873795517    -0.0786484388     0.4162943230
Bq        -0.2868930746    -0.0301785228     0.4040293083
Bq        -0.2864065975     0.0182913932     0.3917642936
Bq        -0.2859201204     0.0667613091     0.3794992788
Bq        -0.2854336433     0.1152312251     0.3672342641
Bq        -0.2849471662     0.1637011411     0.3549692494
Bq        -0.2844606891     0.2121710570     0.3427042347
Bq        -0.2839742120     0.2606409730     0.3304392200
Bq        -0.2834877348     0.3091108890     0.3181742053
Bq        -0.2830012577     0.3575808049     0.3059091906
Bq        -0.2825147806     0.4060507209     0.2936441758
Bq        -0.2820283035     0.4545206369     0.2813791611
Bq        -0.2815418264     0.5029905529     0.2691141464
Bq        -0.2810553493     0.5514604688     0.2568491317
Bq        -0.2805688722     0.5999303848     0.2445841170
Bq        -0.2800823951     0.6484003008     0.2323191023

1
2
3
4
5
6
7
8
9
10
11
12
13
14
15
16
17
18
19
20
21
22
23
24
25
26
27
28
29
30
31
32
33
34
35
36
37
38
39
40
41
42
43
44
45
46
47
48
49
50
51
52
53
54
55
56
57
58
59
60
61
62
63
64
65
66
67
68
69
70
71
72
73
74
75
76
77
78
79
80
81
82
83
84
85
86
87
88
89
90
91
92
93
94
95
96
97
98
99
100
101
102
103
104
105
106
107
108
109
110
111
112
113
114
115
116
117
118
119
120
121
122
123
124
125
126
127
128
129
130
131
132
133
134
135
136
137
138
139
140
141
142
143
144
145
146
147
148
149
150
151
152
153
154
155
156
157
158
159
160
161
162
163
164
165
166
167
168
169
170
171
172
173
174
175
176
177
178
179
180
181
182
183
184
185
186
187
188
189
190
191
192
193
194
195
196
197
198
199
200
201
202
203
204
205
206
207
208
209
210
211
212
213
214
215
216
217
218
219
220
221
222
223
224
225
226
227
228
229
230
231
232
233
234
235
236

