%nproc=8
%mem=1000MB
# rb3lyp/6-311+g** NMR geom=connectivity

Title

0 1
C    -4.0500558   -0.5771862    0.8136712
H    -5.0263804   -1.0082727    1.0024760
C    -3.9381552    0.6617804    0.2400876
H    -4.8252424    1.2338890   -0.0111295
C    -2.6768410    1.2433246    0.0057578
C    -1.4974121    0.5051527    0.2848253
C    -1.6508332   -0.7338728    0.9404026
H    -0.7713646   -1.2730967    1.2633753
C    -2.8898548   -1.2624035    1.1994307
H    -2.9683706   -2.2124563    1.7152676
C    -2.5773185    2.5963696   -0.4192930
H    -3.4870728    3.1412239   -0.6474055
C    -1.3741895    3.2147896   -0.4364030
H    -1.2997315    4.2742019   -0.6578144
C    -0.1719488    2.4994090   -0.1734588
C    -0.2043917    1.1018437    0.0192689
C     1.0513491    3.2042560   -0.0676222
H     1.0427344    4.2819499   -0.1896997
C     2.1942091    2.5487446    0.2579577
H     3.1168527    3.0912848    0.4334727
C     2.2216473    1.1336562    0.2934990
C     1.0486931    0.3945528    0.0302412
C     3.4483363    0.4614633    0.5573939
H     4.3095794    1.0606054    0.8334846
C     3.5427346   -0.8855926    0.4749463
H     4.4731467   -1.3939704    0.7038822
C     2.4490052   -1.6474447   -0.0196319
C     1.2150704   -1.0057258   -0.3013573
C     0.2531113   -1.7434440   -1.0216591
H    -0.6541356   -1.2535051   -1.3462847
C     0.4494193   -3.0628597   -1.3413779
H    -0.3083162   -3.5944309   -1.9054060
C     1.6251726   -3.7207967   -0.9552541
H     1.7670048   -4.7687404   -1.1927019
C     2.6109872   -3.0144177   -0.3183050
H     3.5525612   -3.4902813   -0.0646367
Bq         2.2726263583    -0.2581818000     0.1595438091
Bq         2.2707808330    -0.2086904530     0.1664140789
Bq         2.2689353078    -0.1591991060     0.1732843487
Bq         2.2670897825    -0.1097077589     0.1801546184
Bq         2.2652442572    -0.0602164119     0.1870248882
Bq         2.2633987320    -0.0107250649     0.1938951580
Bq         2.2615532067     0.0387662821     0.2007654278
Bq         2.2597076814     0.0882576291     0.2076356976
Bq         2.2578621562     0.1377489761     0.2145059673
Bq         2.2560166309     0.1872403232     0.2213762371
Bq         2.2541711056     0.2367316702     0.2282465069
Bq         2.2523255804     0.2862230172     0.2351167767
Bq         2.2504800551     0.3357143642     0.2419870465
Bq         2.2486345298     0.3852057112     0.2488573162
Bq         2.2467890046     0.4346970583     0.2557275860
Bq         2.2449434793     0.4841884053     0.2625978558
Bq         2.2430979540     0.5336797523     0.2694681256
Bq         2.2412524288     0.5831710993     0.2763383954
Bq         2.2394069035     0.6326624463     0.2832086651
Bq         2.2375613782     0.6821537933     0.2900789349
Bq         2.2357158530     0.7316451404     0.2969492047
Bq         2.2338703277     0.7811364874     0.3038194745
Bq         2.2320248024     0.8306278344     0.3106897443
Bq         2.2301792772     0.8801191814     0.3175600140
Bq         2.2283337519     0.9296105284     0.3244302838
Bq         2.2264882266     0.9791018754     0.3313005536
Bq         2.2246427014     1.0285932225     0.3381708234
Bq         2.2227971761     1.0780845695     0.3450410932
Bq         2.2209516508     1.1275759165     0.3519113629
Bq         2.2191061255     1.1770672635     0.3587816327
Bq         2.2172606003     1.2265586105     0.3656519025
Bq         2.2154150750     1.2760499576     0.3725221723
Bq         2.2135695497     1.3255413046     0.3793924420
Bq         2.2117240245     1.3750326516     0.3862627118
Bq         2.2098784992     1.4245239986     0.3931329816
Bq         2.2080329739     1.4740153456     0.4000032514
Bq         2.2061874487     1.5235066926     0.4068735212
Bq         2.2043419234     1.5729980397     0.4137437909
Bq         2.2024963981     1.6224893867     0.4206140607
Bq         2.2006508729     1.6719807337     0.4274843305
Bq         2.1988053476     1.7214720807     0.4343546003
Bq         2.1969598223     1.7709634277     0.4412248701
Bq         2.1951142971     1.8204547748     0.4480951398
Bq         2.1932687718     1.8699461218     0.4549654096
Bq         2.1914232465     1.9194374688     0.4618356794
Bq         2.1895777213     1.9689288158     0.4687059492
Bq         2.1877321960     2.0184201628     0.4755762190
Bq         2.1858866707     2.0679115098     0.4824464887
Bq         2.1840411455     2.1174028569     0.4893167585
Bq         2.1821956202     2.1668942039     0.4961870283
Bq         2.1803500949     2.2163855509     0.5030572981
Bq         2.4131907467    -2.7327491509    -0.1709982890
Bq         2.4113452215    -2.6832578039    -0.1641280192
Bq         2.4094996962    -2.6337664569    -0.1572577494
Bq         2.4076541709    -2.5842751098    -0.1503874796
Bq         2.4058086456    -2.5347837628    -0.1435172099
Bq         2.4039631204    -2.4852924158    -0.1366469401
Bq         2.4021175951    -2.4358010688    -0.1297766703
Bq         2.4002720698    -2.3863097218    -0.1229064005
Bq         2.3984265446    -2.3368183748    -0.1160361307
Bq         2.3965810193    -2.2873270277    -0.1091658610
Bq         2.3947354940    -2.2378356807    -0.1022955912
Bq         2.3928899688    -2.1883443337    -0.0954253214
Bq         2.3910444435    -2.1388529867    -0.0885550516
Bq         2.3891989182    -2.0893616397    -0.0816847818
Bq         2.3873533930    -2.0398702926    -0.0748145121
Bq         2.3855078677    -1.9903789456    -0.0679442423
Bq         2.3836623424    -1.9408875986    -0.0610739725
Bq         2.3818168172    -1.8913962516    -0.0542037027
Bq         2.3799712919    -1.8419049046    -0.0473334329
Bq         2.3781257666    -1.7924135576    -0.0404631632
Bq         2.3762802414    -1.7429222105    -0.0335928934
Bq         2.3744347161    -1.6934308635    -0.0267226236
Bq         2.3725891908    -1.6439395165    -0.0198523538
Bq         2.3707436656    -1.5944481695    -0.0129820840
Bq         2.3688981403    -1.5449568225    -0.0061118143
Bq         2.3670526150    -1.4954654754     0.0007584555
Bq         2.3652070898    -1.4459741284     0.0076287253
Bq         2.3633615645    -1.3964827814     0.0144989951
Bq         2.3615160392    -1.3469914344     0.0213692649
Bq         2.3596705140    -1.2975000874     0.0282395346
Bq         2.3578249887    -1.2480087404     0.0351098044
Bq         2.3559794634    -1.1985173933     0.0419800742
Bq         2.3541339382    -1.1490260463     0.0488503440
Bq         2.3522884129    -1.0995346993     0.0557206137
Bq         2.3504428876    -1.0500433523     0.0625908835
Bq         2.3485973623    -1.0005520053     0.0694611533
Bq         2.3467518371    -0.9510606583     0.0763314231
Bq         2.3449063118    -0.9015693112     0.0832016929
Bq         2.3430607865    -0.8520779642     0.0900719626
Bq         2.3412152613    -0.8025866172     0.0969422324
Bq         2.3393697360    -0.7530952702     0.1038125022
Bq         2.3375242107    -0.7036039232     0.1106827720
Bq         2.3356786855    -0.6541125761     0.1175530418
Bq         2.3338331602    -0.6046212291     0.1244233115
Bq         2.3319876349    -0.5551298821     0.1312935813
Bq         2.3301421097    -0.5056385351     0.1381638511
Bq         2.3282965844    -0.4561471881     0.1450341209
Bq         2.3264510591    -0.4066558411     0.1519043907
Bq         2.3246055339    -0.3571644940     0.1587746604
Bq         2.3227600086    -0.3076731470     0.1656449302
Bq         2.3209144833    -0.2581818000     0.1725152000
Bq         2.3190689581    -0.2086904530     0.1793854698
Bq         2.3172234328    -0.1591991060     0.1862557396
Bq         2.3153779075    -0.1097077589     0.1931260093
Bq         2.3135323823    -0.0602164119     0.1999962791
Bq         2.3116868570    -0.0107250649     0.2068665489
Bq         2.3098413317     0.0387662821     0.2137368187
Bq         2.3079958065     0.0882576291     0.2206070885
Bq         2.3061502812     0.1377489761     0.2274773582
Bq         2.3043047559     0.1872403232     0.2343476280
Bq         2.3024592307     0.2367316702     0.2412178978
Bq         2.3006137054     0.2862230172     0.2480881676
Bq         2.2987681801     0.3357143642     0.2549584374
Bq         2.2969226549     0.3852057112     0.2618287071
Bq         2.2950771296     0.4346970583     0.2686989769
Bq         2.2932316043     0.4841884053     0.2755692467
Bq         2.2913860791     0.5336797523     0.2824395165
Bq         2.2895405538     0.5831710993     0.2893097863
Bq         2.2876950285     0.6326624463     0.2961800560
Bq         2.2858495032     0.6821537933     0.3030503258
Bq         2.2840039780     0.7316451404     0.3099205956
Bq         2.2821584527     0.7811364874     0.3167908654
Bq         2.2803129274     0.8306278344     0.3236611351
Bq         2.2784674022     0.8801191814     0.3305314049
Bq         2.2766218769     0.9296105284     0.3374016747
Bq         2.2747763516     0.9791018754     0.3442719445
Bq         2.2729308264     1.0285932225     0.3511422143
Bq         2.2710853011     1.0780845695     0.3580124840
Bq         2.2692397758     1.1275759165     0.3648827538
Bq         2.2673942506     1.1770672635     0.3717530236
Bq         2.2655487253     1.2265586105     0.3786232934
Bq         2.2637032000     1.2760499576     0.3854935632
Bq         2.2618576748     1.3255413046     0.3923638329
Bq         2.2600121495     1.3750326516     0.3992341027
Bq         2.2581666242     1.4245239986     0.4061043725
Bq         2.2563210990     1.4740153456     0.4129746423
Bq         2.2544755737     1.5235066926     0.4198449121
Bq         2.2526300484     1.5729980397     0.4267151818
Bq         2.2507845232     1.6224893867     0.4335854516
Bq         2.2489389979     1.6719807337     0.4404557214
Bq         2.2470934726     1.7214720807     0.4473259912
Bq         2.2452479474     1.7709634277     0.4541962610
Bq         2.2434024221     1.8204547748     0.4610665307
Bq         2.2415568968     1.8699461218     0.4679368005
Bq         2.2397113716     1.9194374688     0.4748070703
Bq         2.2378658463     1.9689288158     0.4816773401
Bq         2.2360203210     2.0184201628     0.4885476099
Bq         2.2341747958     2.0679115098     0.4954178796
Bq         2.2323292705     2.1174028569     0.5022881494
Bq         2.2304837452     2.1668942039     0.5091584192
Bq         2.2286382199     2.2163855509     0.5160286890
Bq         2.4614788717    -2.7327491509    -0.1580268981
Bq         2.4596333465    -2.6832578039    -0.1511566283
Bq         2.4577878212    -2.6337664569    -0.1442863585
Bq         2.4559422959    -2.5842751098    -0.1374160887
Bq         2.4540967707    -2.5347837628    -0.1305458190
Bq         2.4522512454    -2.4852924158    -0.1236755492
Bq         2.4504057201    -2.4358010688    -0.1168052794
Bq         2.4485601949    -2.3863097218    -0.1099350096
Bq         2.4467146696    -2.3368183748    -0.1030647398
Bq         2.4448691443    -2.2873270277    -0.0961944701
Bq         2.4430236191    -2.2378356807    -0.0893242003
Bq         2.4411780938    -2.1883443337    -0.0824539305
Bq         2.4393325685    -2.1388529867    -0.0755836607
Bq         2.4374870433    -2.0893616397    -0.0687133909
Bq         2.4356415180    -2.0398702926    -0.0618431212
Bq         2.4337959927    -1.9903789456    -0.0549728514
Bq         2.4319504675    -1.9408875986    -0.0481025816
Bq         2.4301049422    -1.8913962516    -0.0412323118
Bq         2.4282594169    -1.8419049046    -0.0343620420
Bq         2.4264138917    -1.7924135576    -0.0274917723
Bq         2.4245683664    -1.7429222105    -0.0206215025
Bq         2.4227228411    -1.6934308635    -0.0137512327
Bq         2.4208773159    -1.6439395165    -0.0068809629
Bq         2.4190317906    -1.5944481695    -0.0000106932
Bq         2.4171862653    -1.5449568225     0.0068595766
Bq         2.4153407400    -1.4954654754     0.0137298464
Bq         2.4134952148    -1.4459741284     0.0206001162
Bq         2.4116496895    -1.3964827814     0.0274703860
Bq         2.4098041642    -1.3469914344     0.0343406557
Bq         2.4079586390    -1.2975000874     0.0412109255
Bq         2.4061131137    -1.2480087404     0.0480811953
Bq         2.4042675884    -1.1985173933     0.0549514651
Bq         2.4024220632    -1.1490260463     0.0618217349
Bq         2.4005765379    -1.0995346993     0.0686920046
Bq         2.3987310126    -1.0500433523     0.0755622744
Bq         2.3968854874    -1.0005520053     0.0824325442
Bq         2.3950399621    -0.9510606583     0.0893028140
Bq         2.3931944368    -0.9015693112     0.0961730838
Bq         2.3913489116    -0.8520779642     0.1030433535
Bq         2.3895033863    -0.8025866172     0.1099136233
Bq         2.3876578610    -0.7530952702     0.1167838931
Bq         2.3858123358    -0.7036039232     0.1236541629
Bq         2.3839668105    -0.6541125761     0.1305244327
Bq         2.3821212852    -0.6046212291     0.1373947024
Bq         2.3802757600    -0.5551298821     0.1442649722
Bq         2.3784302347    -0.5056385351     0.1511352420
Bq         2.3765847094    -0.4561471881     0.1580055118
Bq         2.3747391842    -0.4066558411     0.1648757816

1
2
3
4
5
6
7
8
9
10
11
12
13
14
15
16
17
18
19
20
21
22
23
24
25
26
27
28
29
30
31
32
33
34
35
36
37
38
39
40
41
42
43
44
45
46
47
48
49
50
51
52
53
54
55
56
57
58
59
60
61
62
63
64
65
66
67
68
69
70
71
72
73
74
75
76
77
78
79
80
81
82
83
84
85
86
87
88
89
90
91
92
93
94
95
96
97
98
99
100
101
102
103
104
105
106
107
108
109
110
111
112
113
114
115
116
117
118
119
120
121
122
123
124
125
126
127
128
129
130
131
132
133
134
135
136
137
138
139
140
141
142
143
144
145
146
147
148
149
150
151
152
153
154
155
156
157
158
159
160
161
162
163
164
165
166
167
168
169
170
171
172
173
174
175
176
177
178
179
180
181
182
183
184
185
186
187
188
189
190
191
192
193
194
195
196
197
198
199
200
201
202
203
204
205
206
207
208
209
210
211
212
213
214
215
216
217
218
219
220
221
222
223
224
225
226
227
228
229
230
231
232
233
234
235
236

