%nproc=8
%mem=1000MB
# rb3lyp/6-311+g** NMR geom=connectivity

Title

0 1
C    -4.0500558   -0.5771862    0.8136712
H    -5.0263804   -1.0082727    1.0024760
C    -3.9381552    0.6617804    0.2400876
H    -4.8252424    1.2338890   -0.0111295
C    -2.6768410    1.2433246    0.0057578
C    -1.4974121    0.5051527    0.2848253
C    -1.6508332   -0.7338728    0.9404026
H    -0.7713646   -1.2730967    1.2633753
C    -2.8898548   -1.2624035    1.1994307
H    -2.9683706   -2.2124563    1.7152676
C    -2.5773185    2.5963696   -0.4192930
H    -3.4870728    3.1412239   -0.6474055
C    -1.3741895    3.2147896   -0.4364030
H    -1.2997315    4.2742019   -0.6578144
C    -0.1719488    2.4994090   -0.1734588
C    -0.2043917    1.1018437    0.0192689
C     1.0513491    3.2042560   -0.0676222
H     1.0427344    4.2819499   -0.1896997
C     2.1942091    2.5487446    0.2579577
H     3.1168527    3.0912848    0.4334727
C     2.2216473    1.1336562    0.2934990
C     1.0486931    0.3945528    0.0302412
C     3.4483363    0.4614633    0.5573939
H     4.3095794    1.0606054    0.8334846
C     3.5427346   -0.8855926    0.4749463
H     4.4731467   -1.3939704    0.7038822
C     2.4490052   -1.6474447   -0.0196319
C     1.2150704   -1.0057258   -0.3013573
C     0.2531113   -1.7434440   -1.0216591
H    -0.6541356   -1.2535051   -1.3462847
C     0.4494193   -3.0628597   -1.3413779
H    -0.3083162   -3.5944309   -1.9054060
C     1.6251726   -3.7207967   -0.9552541
H     1.7670048   -4.7687404   -1.1927019
C     2.6109872   -3.0144177   -0.3183050
H     3.5525612   -3.4902813   -0.0646367
Bq         0.9800485099    -1.9802095025    -0.7487547925
Bq         0.9745452732    -1.9320130111    -0.7366381673
Bq         0.9690420366    -1.8838165198    -0.7245215420
Bq         0.9635387999    -1.8356200284    -0.7124049168
Bq         0.9580355632    -1.7874235371    -0.7002882916
Bq         0.9525323265    -1.7392270457    -0.6881716664
Bq         0.9470290898    -1.6910305543    -0.6760550411
Bq         0.9415258531    -1.6428340630    -0.6639384159
Bq         0.9360226164    -1.5946375716    -0.6518217907
Bq         0.9305193798    -1.5464410803    -0.6397051654
Bq         0.9250161431    -1.4982445889    -0.6275885402
Bq         0.9195129064    -1.4500480976    -0.6154719150
Bq         0.9140096697    -1.4018516062    -0.6033552897
Bq         0.9085064330    -1.3536551149    -0.5912386645
Bq         0.9030031963    -1.3054586235    -0.5791220393
Bq         0.8974999596    -1.2572621321    -0.5670054141
Bq         0.8919967230    -1.2090656408    -0.5548887888
Bq         0.8864934863    -1.1608691494    -0.5427721636
Bq         0.8809902496    -1.1126726581    -0.5306555384
Bq         0.8754870129    -1.0644761667    -0.5185389131
Bq         0.8699837762    -1.0162796754    -0.5064222879
Bq         0.8644805395    -0.9680831840    -0.4943056627
Bq         0.8589773028    -0.9198866927    -0.4821890375
Bq         0.8534740662    -0.8716902013    -0.4700724122
Bq         0.8479708295    -0.8234937099    -0.4579557870
Bq         0.8424675928    -0.7752972186    -0.4458391618
Bq         0.8369643561    -0.7271007272    -0.4337225365
Bq         0.8314611194    -0.6789042359    -0.4216059113
Bq         0.8259578827    -0.6307077445    -0.4094892861
Bq         0.8204546460    -0.5825112532    -0.3973726609
Bq         0.8149514094    -0.5343147618    -0.3852560356
Bq         0.8094481727    -0.4861182704    -0.3731394104
Bq         0.8039449360    -0.4379217791    -0.3610227852
Bq         0.7984416993    -0.3897252877    -0.3489061599
Bq         0.7929384626    -0.3415287964    -0.3367895347
Bq         0.7874352259    -0.2933323050    -0.3246729095
Bq         0.7819319892    -0.2451358137    -0.3125562843
Bq         0.7764287526    -0.1969393223    -0.3004396590
Bq         0.7709255159    -0.1487428310    -0.2883230338
Bq         0.7654222792    -0.1005463396    -0.2762064086
Bq         0.7599190425    -0.0523498482    -0.2640897833
Bq         0.7544158058    -0.0041533569    -0.2519731581
Bq         0.7489125691     0.0440431345    -0.2398565329
Bq         1.3447606744    -4.7756060011    -1.4308423620
Bq         1.3392574377    -4.7274095098    -1.4187257367
Bq         1.3337542010    -4.6792130184    -1.4066091115
Bq         1.3282509643    -4.6310165271    -1.3944924863
Bq         1.3227477276    -4.5828200357    -1.3823758610
Bq         1.3172444910    -4.5346235444    -1.3702592358
Bq         1.3117412543    -4.4864270530    -1.3581426106
Bq         1.3062380176    -4.4382305616    -1.3460259854
Bq         1.3007347809    -4.3900340703    -1.3339093601
Bq         1.2952315442    -4.3418375789    -1.3217927349
Bq         1.2897283075    -4.2936410876    -1.3096761097
Bq         1.2842250708    -4.2454445962    -1.2975594844
Bq         1.2787218341    -4.1972481049    -1.2854428592
Bq         1.2732185975    -4.1490516135    -1.2733262340
Bq         1.2677153608    -4.1008551222    -1.2612096088
Bq         1.2622121241    -4.0526586308    -1.2490929835
Bq         1.2567088874    -4.0044621394    -1.2369763583
Bq         1.2512056507    -3.9562656481    -1.2248597331
Bq         1.2457024140    -3.9080691567    -1.2127431078
Bq         1.2401991773    -3.8598726654    -1.2006264826
Bq         1.2346959407    -3.8116761740    -1.1885098574
Bq         1.2291927040    -3.7634796827    -1.1763932322
Bq         1.2236894673    -3.7152831913    -1.1642766069
Bq         1.2181862306    -3.6670866999    -1.1521599817
Bq         1.2126829939    -3.6188902086    -1.1400433565
Bq         1.2071797572    -3.5706937172    -1.1279267312
Bq         1.2016765205    -3.5224972259    -1.1158101060
Bq         1.1961732839    -3.4743007345    -1.1036934808
Bq         1.1906700472    -3.4261042432    -1.0915768556
Bq         1.1851668105    -3.3779077518    -1.0794602303
Bq         1.1796635738    -3.3297112605    -1.0673436051
Bq         1.1741603371    -3.2815147691    -1.0552269799
Bq         1.1686571004    -3.2333182777    -1.0431103546
Bq         1.1631538637    -3.1851217864    -1.0309937294
Bq         1.1576506271    -3.1369252950    -1.0188771042
Bq         1.1521473904    -3.0887288037    -1.0067604789
Bq         1.1466441537    -3.0405323123    -0.9946438537
Bq         1.1411409170    -2.9923358210    -0.9825272285
Bq         1.1356376803    -2.9441393296    -0.9704106033
Bq         1.1301344436    -2.8959428383    -0.9582939780
Bq         1.1246312069    -2.8477463469    -0.9461773528
Bq         1.1191279703    -2.7995498555    -0.9340607276
Bq         1.1136247336    -2.7513533642    -0.9219441023
Bq         1.1081214969    -2.7031568728    -0.9098274771
Bq         1.1026182602    -2.6549603815    -0.8977108519
Bq         1.0971150235    -2.6067638901    -0.8855942267
Bq         1.0916117868    -2.5585673988    -0.8734776014
Bq         1.0861085501    -2.5103709074    -0.8613609762
Bq         1.0806053135    -2.4621744160    -0.8492443510
Bq         1.0751020768    -2.4139779247    -0.8371277257
Bq         1.0695988401    -2.3657814333    -0.8250111005
Bq         1.0640956034    -2.3175849420    -0.8128944753
Bq         1.0585923667    -2.2693884506    -0.8007778501
Bq         1.0530891300    -2.2211919593    -0.7886612248
Bq         1.0475858933    -2.1729954679    -0.7765445996
Bq         1.0420826566    -2.1247989766    -0.7644279744
Bq         1.0365794200    -2.0766024852    -0.7523113491
Bq         1.0310761833    -2.0284059938    -0.7401947239
Bq         1.0255729466    -1.9802095025    -0.7280780987
Bq         1.0200697099    -1.9320130111    -0.7159614735
Bq         1.0145664732    -1.8838165198    -0.7038448482
Bq         1.0090632365    -1.8356200284    -0.6917282230
Bq         1.0035599998    -1.7874235371    -0.6796115978
Bq         0.9980567632    -1.7392270457    -0.6674949725
Bq         0.9925535265    -1.6910305543    -0.6553783473
Bq         0.9870502898    -1.6428340630    -0.6432617221
Bq         0.9815470531    -1.5946375716    -0.6311450968
Bq         0.9760438164    -1.5464410803    -0.6190284716
Bq         0.9705405797    -1.4982445889    -0.6069118464
Bq         0.9650373430    -1.4500480976    -0.5947952212
Bq         0.9595341064    -1.4018516062    -0.5826785959
Bq         0.9540308697    -1.3536551149    -0.5705619707
Bq         0.9485276330    -1.3054586235    -0.5584453455
Bq         0.9430243963    -1.2572621321    -0.5463287202
Bq         0.9375211596    -1.2090656408    -0.5342120950
Bq         0.9320179229    -1.1608691494    -0.5220954698
Bq         0.9265146862    -1.1126726581    -0.5099788446
Bq         0.9210114496    -1.0644761667    -0.4978622193
Bq         0.9155082129    -1.0162796754    -0.4857455941
Bq         0.9100049762    -0.9680831840    -0.4736289689
Bq         0.9045017395    -0.9198866927    -0.4615123436
Bq         0.8989985028    -0.8716902013    -0.4493957184
Bq         0.8934952661    -0.8234937099    -0.4372790932
Bq         0.8879920294    -0.7752972186    -0.4251624680
Bq         0.8824887928    -0.7271007272    -0.4130458427
Bq         0.8769855561    -0.6789042359    -0.4009292175
Bq         0.8714823194    -0.6307077445    -0.3888125923
Bq         0.8659790827    -0.5825112532    -0.3766959670
Bq         0.8604758460    -0.5343147618    -0.3645793418
Bq         0.8549726093    -0.4861182704    -0.3524627166
Bq         0.8494693726    -0.4379217791    -0.3403460914
Bq         0.8439661360    -0.3897252877    -0.3282294661
Bq         0.8384628993    -0.3415287964    -0.3161128409
Bq         0.8329596626    -0.2933323050    -0.3039962157
Bq         0.8274564259    -0.2451358137    -0.2918795904
Bq         0.8219531892    -0.1969393223    -0.2797629652
Bq         0.8164499525    -0.1487428310    -0.2676463400
Bq         0.8109467158    -0.1005463396    -0.2555297148
Bq         0.8054434791    -0.0523498482    -0.2434130895
Bq         0.7999402425    -0.0041533569    -0.2312964643
Bq         0.7944370058     0.0440431345    -0.2191798391
Bq         1.3902851110    -4.7756060011    -1.4101656681
Bq         1.3847818744    -4.7274095098    -1.3980490429
Bq         1.3792786377    -4.6792130184    -1.3859324177
Bq         1.3737754010    -4.6310165271    -1.3738157925
Bq         1.3682721643    -4.5828200357    -1.3616991672
Bq         1.3627689276    -4.5346235444    -1.3495825420
Bq         1.3572656909    -4.4864270530    -1.3374659168
Bq         1.3517624542    -4.4382305616    -1.3253492915
Bq         1.3462592176    -4.3900340703    -1.3132326663
Bq         1.3407559809    -4.3418375789    -1.3011160411
Bq         1.3352527442    -4.2936410876    -1.2889994159
Bq         1.3297495075    -4.2454445962    -1.2768827906
Bq         1.3242462708    -4.1972481049    -1.2647661654
Bq         1.3187430341    -4.1490516135    -1.2526495402
Bq         1.3132397974    -4.1008551222    -1.2405329149
Bq         1.3077365607    -4.0526586308    -1.2284162897
Bq         1.3022333241    -4.0044621394    -1.2162996645
Bq         1.2967300874    -3.9562656481    -1.2041830393
Bq         1.2912268507    -3.9080691567    -1.1920664140
Bq         1.2857236140    -3.8598726654    -1.1799497888
Bq         1.2802203773    -3.8116761740    -1.1678331636
Bq         1.2747171406    -3.7634796827    -1.1557165383
Bq         1.2692139039    -3.7152831913    -1.1435999131
Bq         1.2637106673    -3.6670866999    -1.1314832879
Bq         1.2582074306    -3.6188902086    -1.1193666627
Bq         1.2527041939    -3.5706937172    -1.1072500374
Bq         1.2472009572    -3.5224972259    -1.0951334122
Bq         1.2416977205    -3.4743007345    -1.0830167870
Bq         1.2361944838    -3.4261042432    -1.0709001617
Bq         1.2306912471    -3.3779077518    -1.0587835365
Bq         1.2251880105    -3.3297112605    -1.0466669113
Bq         1.2196847738    -3.2815147691    -1.0345502861
Bq         1.2141815371    -3.2333182777    -1.0224336608
Bq         1.2086783004    -3.1851217864    -1.0103170356
Bq         1.2031750637    -3.1369252950    -0.9982004104
Bq         1.1976718270    -3.0887288037    -0.9860837851
Bq         1.1921685903    -3.0405323123    -0.9739671599
Bq         1.1866653537    -2.9923358210    -0.9618505347
Bq         1.1811621170    -2.9441393296    -0.9497339094
Bq         1.1756588803    -2.8959428383    -0.9376172842
Bq         1.1701556436    -2.8477463469    -0.9255006590
Bq         1.1646524069    -2.7995498555    -0.9133840338
Bq         1.1591491702    -2.7513533642    -0.9012674085
Bq         1.1536459335    -2.7031568728    -0.8891507833
Bq         1.1481426969    -2.6549603815    -0.8770341581
Bq         1.1426394602    -2.6067638901    -0.8649175328
Bq         1.1371362235    -2.5585673988    -0.8528009076
Bq         1.1316329868    -2.5103709074    -0.8406842824
Bq         1.1261297501    -2.4621744160    -0.8285676572
Bq         1.1206265134    -2.4139779247    -0.8164510319
Bq         1.1151232767    -2.3657814333    -0.8043344067
Bq         1.1096200401    -2.3175849420    -0.7922177815
Bq         1.1041168034    -2.2693884506    -0.7801011562
Bq         1.0986135667    -2.2211919593    -0.7679845310
Bq         1.0931103300    -2.1729954679    -0.7558679058
Bq         1.0876070933    -2.1247989766    -0.7437512806

1
2
3
4
5
6
7
8
9
10
11
12
13
14
15
16
17
18
19
20
21
22
23
24
25
26
27
28
29
30
31
32
33
34
35
36
37
38
39
40
41
42
43
44
45
46
47
48
49
50
51
52
53
54
55
56
57
58
59
60
61
62
63
64
65
66
67
68
69
70
71
72
73
74
75
76
77
78
79
80
81
82
83
84
85
86
87
88
89
90
91
92
93
94
95
96
97
98
99
100
101
102
103
104
105
106
107
108
109
110
111
112
113
114
115
116
117
118
119
120
121
122
123
124
125
126
127
128
129
130
131
132
133
134
135
136
137
138
139
140
141
142
143
144
145
146
147
148
149
150
151
152
153
154
155
156
157
158
159
160
161
162
163
164
165
166
167
168
169
170
171
172
173
174
175
176
177
178
179
180
181
182
183
184
185
186
187
188
189
190
191
192
193
194
195
196
197
198
199
200
201
202
203
204
205
206
207
208
209
210
211
212
213
214
215
216
217
218
219
220
221
222
223
224
225
226
227
228
229
230
231
232
233
234
235
236

