%nproc=8
%mem=1000MB
# rb3lyp/6-311+g** NMR geom=connectivity

Title

0 1
C    -4.0500558   -0.5771862    0.8136712
H    -5.0263804   -1.0082727    1.0024760
C    -3.9381552    0.6617804    0.2400876
H    -4.8252424    1.2338890   -0.0111295
C    -2.6768410    1.2433246    0.0057578
C    -1.4974121    0.5051527    0.2848253
C    -1.6508332   -0.7338728    0.9404026
H    -0.7713646   -1.2730967    1.2633753
C    -2.8898548   -1.2624035    1.1994307
H    -2.9683706   -2.2124563    1.7152676
C    -2.5773185    2.5963696   -0.4192930
H    -3.4870728    3.1412239   -0.6474055
C    -1.3741895    3.2147896   -0.4364030
H    -1.2997315    4.2742019   -0.6578144
C    -0.1719488    2.4994090   -0.1734588
C    -0.2043917    1.1018437    0.0192689
C     1.0513491    3.2042560   -0.0676222
H     1.0427344    4.2819499   -0.1896997
C     2.1942091    2.5487446    0.2579577
H     3.1168527    3.0912848    0.4334727
C     2.2216473    1.1336562    0.2934990
C     1.0486931    0.3945528    0.0302412
C     3.4483363    0.4614633    0.5573939
H     4.3095794    1.0606054    0.8334846
C     3.5427346   -0.8855926    0.4749463
H     4.4731467   -1.3939704    0.7038822
C     2.4490052   -1.6474447   -0.0196319
C     1.2150704   -1.0057258   -0.3013573
C     0.2531113   -1.7434440   -1.0216591
H    -0.6541356   -1.2535051   -1.3462847
C     0.4494193   -3.0628597   -1.3413779
H    -0.3083162   -3.5944309   -1.9054060
C     1.6251726   -3.7207967   -0.9552541
H     1.7670048   -4.7687404   -1.1927019
C     2.6109872   -3.0144177   -0.3183050
H     3.5525612   -3.4902813   -0.0646367
Bq        -1.3680291716     1.7632083681    -0.0933721386
Bq        -1.3675426945     1.8116782840    -0.1056371534
Bq        -1.3670562174     1.8601482000    -0.1179021681
Bq        -1.3665697403     1.9086181160    -0.1301671828
Bq        -1.3660832632     1.9570880319    -0.1424321975
Bq        -1.3655967861     2.0055579479    -0.1546972122
Bq        -1.3651103090     2.0540278639    -0.1669622269
Bq        -1.3646238319     2.1024977798    -0.1792272416
Bq        -1.3641373547     2.1509676958    -0.1914922563
Bq        -1.3636508776     2.1994376118    -0.2037572711
Bq        -1.3631644005     2.2479075278    -0.2160222858
Bq        -1.3626779234     2.2963774437    -0.2282873005
Bq        -1.3621914463     2.3448473597    -0.2405523152
Bq        -1.3617049692     2.3933172757    -0.2528173299
Bq        -1.3612184921     2.4417871916    -0.2650823446
Bq        -1.3607320150     2.4902571076    -0.2773473593
Bq        -1.3602455378     2.5387270236    -0.2896123741
Bq        -1.3597590607     2.5871969395    -0.3018773888
Bq        -1.3592725836     2.6356668555    -0.3141424035
Bq        -1.3587861065     2.6841367715    -0.3264074182
Bq        -1.3582996294     2.7326066875    -0.3386724329
Bq        -1.3578131523     2.7810766034    -0.3509374476
Bq        -1.3573266752     2.8295465194    -0.3632024623
Bq        -1.3568401981     2.8780164354    -0.3754674771
Bq        -1.3563537209     2.9264863513    -0.3877324918
Bq        -1.3558672438     2.9749562673    -0.3999975065
Bq        -1.3553807667     3.0234261833    -0.4122625212
Bq        -1.3548942896     3.0718960992    -0.4245275359
Bq        -1.3544078125     3.1203660152    -0.4367925506
Bq        -1.3539213354     3.1688359312    -0.4490575653
Bq        -1.3534348583     3.2173058471    -0.4613225800
Bq        -1.3529483812     3.2657757631    -0.4735875948
Bq        -1.3524619041     3.3142456791    -0.4858526095
Bq        -1.3519754269     3.3627155951    -0.4981176242
Bq        -1.3514889498     3.4111855110    -0.5103826389
Bq        -1.3510024727     3.4596554270    -0.5226476536
Bq        -1.3505159956     3.5081253430    -0.5349126683
Bq        -1.3500295185     3.5565952589    -0.5471776830
Bq        -1.3495430414     3.6050651749    -0.5594426978
Bq        -1.3490565643     3.6535350909    -0.5717077125
Bq        -1.3485700872     3.7020050068    -0.5839727272
Bq        -1.3480836100     3.7504749228    -0.5962377419
Bq        -1.3475971329     3.7989448388    -0.6085027566
Bq        -1.3471106558     3.8474147548    -0.6207677713
Bq        -1.3466241787     3.8958846707    -0.6330327860
Bq        -1.3461377016     3.9443545867    -0.6452978008
Bq        -1.3456512245     3.9928245027    -0.6575628155
Bq        -1.3451647474     4.0412944186    -0.6698278302
Bq        -1.3446782703     4.0897643346    -0.6820928449
Bq        -1.3441917931     4.1382342506    -0.6943578596
Bq        -1.3437053160     4.1867041665    -0.7066228743
Bq        -1.3432188389     4.2351740825    -0.7188878890
Bq        -1.3427323618     4.2836439985    -0.7311529037
Bq        -1.3414193571    -0.5633475985     0.4973301995
Bq        -1.3409328800    -0.5148776825     0.4850651848
Bq        -1.3404464029    -0.4664077665     0.4728001701
Bq        -1.3399599258    -0.4179378506     0.4605351554
Bq        -1.3394734487    -0.3694679346     0.4482701407
Bq        -1.3389869716    -0.3209980186     0.4360051260
Bq        -1.3385004944    -0.2725281027     0.4237401113
Bq        -1.3380140173    -0.2240581867     0.4114750965
Bq        -1.3375275402    -0.1755882707     0.3992100818
Bq        -1.3370410631    -0.1271183548     0.3869450671
Bq        -1.3365545860    -0.0786484388     0.3746800524
Bq        -1.3360681089    -0.0301785228     0.3624150377
Bq        -1.3355816318     0.0182913932     0.3501500230
Bq        -1.3350951547     0.0667613091     0.3378850083
Bq        -1.3346086775     0.1152312251     0.3256199936
Bq        -1.3341222004     0.1637011411     0.3133549788
Bq        -1.3336357233     0.2121710570     0.3010899641
Bq        -1.3331492462     0.2606409730     0.2888249494
Bq        -1.3326627691     0.3091108890     0.2765599347
Bq        -1.3321762920     0.3575808049     0.2642949200
Bq        -1.3316898149     0.4060507209     0.2520299053
Bq        -1.3312033378     0.4545206369     0.2397648906
Bq        -1.3307168606     0.5029905529     0.2274998758
Bq        -1.3302303835     0.5514604688     0.2152348611
Bq        -1.3297439064     0.5999303848     0.2029698464
Bq        -1.3292574293     0.6484003008     0.1907048317
Bq        -1.3287709522     0.6968702167     0.1784398170
Bq        -1.3282844751     0.7453401327     0.1661748023
Bq        -1.3277979980     0.7938100487     0.1539097876
Bq        -1.3273115209     0.8422799646     0.1416447728
Bq        -1.3268250437     0.8907498806     0.1293797581
Bq        -1.3263385666     0.9392197966     0.1171147434
Bq        -1.3258520895     0.9876897125     0.1048497287
Bq        -1.3253656124     1.0361596285     0.0925847140
Bq        -1.3248791353     1.0846295445     0.0803196993
Bq        -1.3243926582     1.1330994605     0.0680546846
Bq        -1.3239061811     1.1815693764     0.0557896699
Bq        -1.3234197040     1.2300392924     0.0435246551
Bq        -1.3229332268     1.2785092084     0.0312596404
Bq        -1.3224467497     1.3269791243     0.0189946257
Bq        -1.3219602726     1.3754490403     0.0067296110
Bq        -1.3214737955     1.4239189563    -0.0055354037
Bq        -1.3209873184     1.4723888722    -0.0178004184
Bq        -1.3205008413     1.5208587882    -0.0300654331
Bq        -1.3200143642     1.5693287042    -0.0423304479
Bq        -1.3195278871     1.6177986202    -0.0545954626
Bq        -1.3190414099     1.6662685361    -0.0668604773
Bq        -1.3185549328     1.7147384521    -0.0791254920
Bq        -1.3180684557     1.7632083681    -0.0913905067
Bq        -1.3175819786     1.8116782840    -0.1036555214
Bq        -1.3170955015     1.8601482000    -0.1159205361
Bq        -1.3166090244     1.9086181160    -0.1281855508
Bq        -1.3161225473     1.9570880319    -0.1404505656
Bq        -1.3156360702     2.0055579479    -0.1527155803
Bq        -1.3151495931     2.0540278639    -0.1649805950
Bq        -1.3146631159     2.1024977798    -0.1772456097
Bq        -1.3141766388     2.1509676958    -0.1895106244
Bq        -1.3136901617     2.1994376118    -0.2017756391
Bq        -1.3132036846     2.2479075278    -0.2140406538
Bq        -1.3127172075     2.2963774437    -0.2263056686
Bq        -1.3122307304     2.3448473597    -0.2385706833
Bq        -1.3117442533     2.3933172757    -0.2508356980
Bq        -1.3112577762     2.4417871916    -0.2631007127
Bq        -1.3107712990     2.4902571076    -0.2753657274
Bq        -1.3102848219     2.5387270236    -0.2876307421
Bq        -1.3097983448     2.5871969395    -0.2998957568
Bq        -1.3093118677     2.6356668555    -0.3121607716
Bq        -1.3088253906     2.6841367715    -0.3244257863
Bq        -1.3083389135     2.7326066875    -0.3366908010
Bq        -1.3078524364     2.7810766034    -0.3489558157
Bq        -1.3073659593     2.8295465194    -0.3612208304
Bq        -1.3068794821     2.8780164354    -0.3734858451
Bq        -1.3063930050     2.9264863513    -0.3857508598
Bq        -1.3059065279     2.9749562673    -0.3980158745
Bq        -1.3054200508     3.0234261833    -0.4102808893
Bq        -1.3049335737     3.0718960992    -0.4225459040
Bq        -1.3044470966     3.1203660152    -0.4348109187
Bq        -1.3039606195     3.1688359312    -0.4470759334
Bq        -1.3034741424     3.2173058471    -0.4593409481
Bq        -1.3029876652     3.2657757631    -0.4716059628
Bq        -1.3025011881     3.3142456791    -0.4838709775
Bq        -1.3020147110     3.3627155951    -0.4961359923
Bq        -1.3015282339     3.4111855110    -0.5084010070
Bq        -1.3010417568     3.4596554270    -0.5206660217
Bq        -1.3005552797     3.5081253430    -0.5329310364
Bq        -1.3000688026     3.5565952589    -0.5451960511
Bq        -1.2995823255     3.6050651749    -0.5574610658
Bq        -1.2990958483     3.6535350909    -0.5697260805
Bq        -1.2986093712     3.7020050068    -0.5819910953
Bq        -1.2981228941     3.7504749228    -0.5942561100
Bq        -1.2976364170     3.7989448388    -0.6065211247
Bq        -1.2971499399     3.8474147548    -0.6187861394
Bq        -1.2966634628     3.8958846707    -0.6310511541
Bq        -1.2961769857     3.9443545867    -0.6433161688
Bq        -1.2956905086     3.9928245027    -0.6555811835
Bq        -1.2952040315     4.0412944186    -0.6678461982
Bq        -1.2947175543     4.0897643346    -0.6801112130
Bq        -1.2942310772     4.1382342506    -0.6923762277
Bq        -1.2937446001     4.1867041665    -0.7046412424
Bq        -1.2932581230     4.2351740825    -0.7169062571
Bq        -1.2927716459     4.2836439985    -0.7291712718
Bq        -1.2914586412    -0.5633475985     0.4993118315
Bq        -1.2909721641    -0.5148776825     0.4870468168
Bq        -1.2904856870    -0.4664077665     0.4747818020
Bq        -1.2899992099    -0.4179378506     0.4625167873
Bq        -1.2895127327    -0.3694679346     0.4502517726
Bq        -1.2890262556    -0.3209980186     0.4379867579
Bq        -1.2885397785    -0.2725281027     0.4257217432
Bq        -1.2880533014    -0.2240581867     0.4134567285
Bq        -1.2875668243    -0.1755882707     0.4011917138
Bq        -1.2870803472    -0.1271183548     0.3889266991
Bq        -1.2865938701    -0.0786484388     0.3766616843
Bq        -1.2861073930    -0.0301785228     0.3643966696
Bq        -1.2856209158     0.0182913932     0.3521316549
Bq        -1.2851344387     0.0667613091     0.3398666402
Bq        -1.2846479616     0.1152312251     0.3276016255
Bq        -1.2841614845     0.1637011411     0.3153366108
Bq        -1.2836750074     0.2121710570     0.3030715961
Bq        -1.2831885303     0.2606409730     0.2908065813
Bq        -1.2827020532     0.3091108890     0.2785415666
Bq        -1.2822155761     0.3575808049     0.2662765519
Bq        -1.2817290990     0.4060507209     0.2540115372
Bq        -1.2812426218     0.4545206369     0.2417465225
Bq        -1.2807561447     0.5029905529     0.2294815078
Bq        -1.2802696676     0.5514604688     0.2172164931
Bq        -1.2797831905     0.5999303848     0.2049514783
Bq        -1.2792967134     0.6484003008     0.1926864636
Bq        -1.2788102363     0.6968702167     0.1804214489
Bq        -1.2783237592     0.7453401327     0.1681564342
Bq        -1.2778372821     0.7938100487     0.1558914195
Bq        -1.2773508049     0.8422799646     0.1436264048
Bq        -1.2768643278     0.8907498806     0.1313613901
Bq        -1.2763778507     0.9392197966     0.1190963754
Bq        -1.2758913736     0.9876897125     0.1068313606
Bq        -1.2754048965     1.0361596285     0.0945663459
Bq        -1.2749184194     1.0846295445     0.0823013312
Bq        -1.2744319423     1.1330994605     0.0700363165
Bq        -1.2739454652     1.1815693764     0.0577713018
Bq        -1.2734589880     1.2300392924     0.0455062871
Bq        -1.2729725109     1.2785092084     0.0332412724
Bq        -1.2724860338     1.3269791243     0.0209762576
Bq        -1.2719995567     1.3754490403     0.0087112429
Bq        -1.2715130796     1.4239189563    -0.0035537718
Bq        -1.2710266025     1.4723888722    -0.0158187865
Bq        -1.2705401254     1.5208587882    -0.0280838012
Bq        -1.2700536483     1.5693287042    -0.0403488159
Bq        -1.2695671711     1.6177986202    -0.0526138306

1
2
3
4
5
6
7
8
9
10
11
12
13
14
15
16
17
18
19
20
21
22
23
24
25
26
27
28
29
30
31
32
33
34
35
36
37
38
39
40
41
42
43
44
45
46
47
48
49
50
51
52
53
54
55
56
57
58
59
60
61
62
63
64
65
66
67
68
69
70
71
72
73
74
75
76
77
78
79
80
81
82
83
84
85
86
87
88
89
90
91
92
93
94
95
96
97
98
99
100
101
102
103
104
105
106
107
108
109
110
111
112
113
114
115
116
117
118
119
120
121
122
123
124
125
126
127
128
129
130
131
132
133
134
135
136
137
138
139
140
141
142
143
144
145
146
147
148
149
150
151
152
153
154
155
156
157
158
159
160
161
162
163
164
165
166
167
168
169
170
171
172
173
174
175
176
177
178
179
180
181
182
183
184
185
186
187
188
189
190
191
192
193
194
195
196
197
198
199
200
201
202
203
204
205
206
207
208
209
210
211
212
213
214
215
216
217
218
219
220
221
222
223
224
225
226
227
228
229
230
231
232
233
234
235
236

