%nproc=8
%mem=1000MB
# rb3lyp/6-311+g** NMR geom=connectivity

Title

0 1
C    -4.0500558   -0.5771862    0.8136712
H    -5.0263804   -1.0082727    1.0024760
C    -3.9381552    0.6617804    0.2400876
H    -4.8252424    1.2338890   -0.0111295
C    -2.6768410    1.2433246    0.0057578
C    -1.4974121    0.5051527    0.2848253
C    -1.6508332   -0.7338728    0.9404026
H    -0.7713646   -1.2730967    1.2633753
C    -2.8898548   -1.2624035    1.1994307
H    -2.9683706   -2.2124563    1.7152676
C    -2.5773185    2.5963696   -0.4192930
H    -3.4870728    3.1412239   -0.6474055
C    -1.3741895    3.2147896   -0.4364030
H    -1.2997315    4.2742019   -0.6578144
C    -0.1719488    2.4994090   -0.1734588
C    -0.2043917    1.1018437    0.0192689
C     1.0513491    3.2042560   -0.0676222
H     1.0427344    4.2819499   -0.1896997
C     2.1942091    2.5487446    0.2579577
H     3.1168527    3.0912848    0.4334727
C     2.2216473    1.1336562    0.2934990
C     1.0486931    0.3945528    0.0302412
C     3.4483363    0.4614633    0.5573939
H     4.3095794    1.0606054    0.8334846
C     3.5427346   -0.8855926    0.4749463
H     4.4731467   -1.3939704    0.7038822
C     2.4490052   -1.6474447   -0.0196319
C     1.2150704   -1.0057258   -0.3013573
C     0.2531113   -1.7434440   -1.0216591
H    -0.6541356   -1.2535051   -1.3462847
C     0.4494193   -3.0628597   -1.3413779
H    -0.3083162   -3.5944309   -1.9054060
C     1.6251726   -3.7207967   -0.9552541
H     1.7670048   -4.7687404   -1.1927019
C     2.6109872   -3.0144177   -0.3183050
H     3.5525612   -3.4902813   -0.0646367
Bq        -0.5764413508     0.9876897125     0.1345742077
Bq        -0.5759548737     1.0361596285     0.1223091930
Bq        -0.5754683965     1.0846295445     0.1100441783
Bq        -0.5749819194     1.1330994605     0.0977791635
Bq        -0.5744954423     1.1815693764     0.0855141488
Bq        -0.5740089652     1.2300392924     0.0732491341
Bq        -0.5735224881     1.2785092084     0.0609841194
Bq        -0.5730360110     1.3269791243     0.0487191047
Bq        -0.5725495339     1.3754490403     0.0364540900
Bq        -0.5720630568     1.4239189563     0.0241890753
Bq        -0.5715765797     1.4723888722     0.0119240606
Bq        -0.5710901025     1.5208587882    -0.0003409542
Bq        -0.5706036254     1.5693287042    -0.0126059689
Bq        -0.5701171483     1.6177986202    -0.0248709836
Bq        -0.5696306712     1.6662685361    -0.0371359983
Bq        -0.5691441941     1.7147384521    -0.0494010130
Bq        -0.5686577170     1.7632083681    -0.0616660277
Bq        -0.5681712399     1.8116782840    -0.0739310424
Bq        -0.5676847628     1.8601482000    -0.0861960572
Bq        -0.5671982856     1.9086181160    -0.0984610719
Bq        -0.5667118085     1.9570880319    -0.1107260866
Bq        -0.5662253314     2.0055579479    -0.1229911013
Bq        -0.5657388543     2.0540278639    -0.1352561160
Bq        -0.5652523772     2.1024977798    -0.1475211307
Bq        -0.5647659001     2.1509676958    -0.1597861454
Bq        -0.5642794230     2.1994376118    -0.1720511602
Bq        -0.5637929459     2.2479075278    -0.1843161749
Bq        -0.5633064687     2.2963774437    -0.1965811896
Bq        -0.5628199916     2.3448473597    -0.2088462043
Bq        -0.5623335145     2.3933172757    -0.2211112190
Bq        -0.5618470374     2.4417871916    -0.2333762337
Bq        -0.5613605603     2.4902571076    -0.2456412484
Bq        -0.5608740832     2.5387270236    -0.2579062631
Bq        -0.5603876061     2.5871969395    -0.2701712779
Bq        -0.5599011290     2.6356668555    -0.2824362926
Bq        -0.5594146518     2.6841367715    -0.2947013073
Bq        -0.5589281747     2.7326066875    -0.3069663220
Bq        -0.5584416976     2.7810766034    -0.3192313367
Bq        -0.5579552205     2.8295465194    -0.3314963514
Bq        -0.5574687434     2.8780164354    -0.3437613661
Bq        -0.5569822663     2.9264863513    -0.3560263809
Bq        -0.5564957892     2.9749562673    -0.3682913956
Bq        -0.5560093121     3.0234261833    -0.3805564103
Bq        -0.5555228349     3.0718960992    -0.3928214250
Bq        -0.5550363578     3.1203660152    -0.4050864397
Bq        -0.5545498807     3.1688359312    -0.4173514544
Bq        -0.5540634036     3.2173058471    -0.4296164691
Bq        -0.5535769265     3.2657757631    -0.4418814838
Bq        -0.5530904494     3.3142456791    -0.4541464986
Bq        -0.5526039723     3.3627155951    -0.4664115133
Bq        -0.5521174952     3.4111855110    -0.4786765280
Bq        -0.5516310181     3.4596554270    -0.4909415427
Bq        -0.5511445409     3.5081253430    -0.5032065574
Bq        -0.5506580638     3.5565952589    -0.5154715721
Bq        -0.5501715867     3.6050651749    -0.5277365868
Bq        -0.5496851096     3.6535350909    -0.5400016016
Bq        -0.5491986325     3.7020050068    -0.5522666163
Bq        -0.5487121554     3.7504749228    -0.5645316310
Bq        -0.5482256783     3.7989448388    -0.5767966457
Bq        -0.5477392012     3.8474147548    -0.5890616604
Bq        -0.5472527240     3.8958846707    -0.6013266751
Bq        -0.5467662469     3.9443545867    -0.6135916898
Bq        -0.5462797698     3.9928245027    -0.6258567046
Bq        -0.5457932927     4.0412944186    -0.6381217193
Bq        -0.5453068156     4.0897643346    -0.6503867340
Bq        -0.5448203385     4.1382342506    -0.6626517487
Bq        -0.5443338614     4.1867041665    -0.6749167634
Bq        -0.5438473843     4.2351740825    -0.6871817781
Bq        -0.5433609071     4.2836439985    -0.6994467928
Bq        -0.5420479024    -0.5633475985     0.5290363105
Bq        -0.5415614253    -0.5148776825     0.5167712957
Bq        -0.5410749482    -0.4664077665     0.5045062810
Bq        -0.5405884711    -0.4179378506     0.4922412663
Bq        -0.5401019940    -0.3694679346     0.4799762516
Bq        -0.5396155169    -0.3209980186     0.4677112369
Bq        -0.5391290398    -0.2725281027     0.4554462222
Bq        -0.5386425627    -0.2240581867     0.4431812075
Bq        -0.5381560856    -0.1755882707     0.4309161927
Bq        -0.5376696084    -0.1271183548     0.4186511780
Bq        -0.5371831313    -0.0786484388     0.4063861633
Bq        -0.5366966542    -0.0301785228     0.3941211486
Bq        -0.5362101771     0.0182913932     0.3818561339
Bq        -0.5357237000     0.0667613091     0.3695911192
Bq        -0.5352372229     0.1152312251     0.3573261045
Bq        -0.5347507458     0.1637011411     0.3450610898
Bq        -0.5342642687     0.2121710570     0.3327960750
Bq        -0.5337777915     0.2606409730     0.3205310603
Bq        -0.5332913144     0.3091108890     0.3082660456
Bq        -0.5328048373     0.3575808049     0.2960010309
Bq        -0.5323183602     0.4060507209     0.2837360162
Bq        -0.5318318831     0.4545206369     0.2714710015
Bq        -0.5313454060     0.5029905529     0.2592059868
Bq        -0.5308589289     0.5514604688     0.2469409720
Bq        -0.5303724518     0.5999303848     0.2346759573
Bq        -0.5298859746     0.6484003008     0.2224109426
Bq        -0.5293994975     0.6968702167     0.2101459279
Bq        -0.5289130204     0.7453401327     0.1978809132
Bq        -0.5284265433     0.7938100487     0.1856158985
Bq        -0.5279400662     0.8422799646     0.1733508838
Bq        -0.5274535891     0.8907498806     0.1610858690
Bq        -0.5269671120     0.9392197966     0.1488208543
Bq        -0.5264806349     0.9876897125     0.1365558396
Bq        -0.5259941577     1.0361596285     0.1242908249
Bq        -0.5255076806     1.0846295445     0.1120258102
Bq        -0.5250212035     1.1330994605     0.0997607955
Bq        -0.5245347264     1.1815693764     0.0874957808
Bq        -0.5240482493     1.2300392924     0.0752307661
Bq        -0.5235617722     1.2785092084     0.0629657513
Bq        -0.5230752951     1.3269791243     0.0507007366
Bq        -0.5225888180     1.3754490403     0.0384357219
Bq        -0.5221023408     1.4239189563     0.0261707072
Bq        -0.5216158637     1.4723888722     0.0139056925
Bq        -0.5211293866     1.5208587882     0.0016406778
Bq        -0.5206429095     1.5693287042    -0.0106243369
Bq        -0.5201564324     1.6177986202    -0.0228893517
Bq        -0.5196699553     1.6662685361    -0.0351543664
Bq        -0.5191834782     1.7147384521    -0.0474193811
Bq        -0.5186970011     1.7632083681    -0.0596843958
Bq        -0.5182105239     1.8116782840    -0.0719494105
Bq        -0.5177240468     1.8601482000    -0.0842144252
Bq        -0.5172375697     1.9086181160    -0.0964794399
Bq        -0.5167510926     1.9570880319    -0.1087444547
Bq        -0.5162646155     2.0055579479    -0.1210094694
Bq        -0.5157781384     2.0540278639    -0.1332744841
Bq        -0.5152916613     2.1024977798    -0.1455394988
Bq        -0.5148051842     2.1509676958    -0.1578045135
Bq        -0.5143187071     2.1994376118    -0.1700695282
Bq        -0.5138322299     2.2479075278    -0.1823345429
Bq        -0.5133457528     2.2963774437    -0.1945995576
Bq        -0.5128592757     2.3448473597    -0.2068645724
Bq        -0.5123727986     2.3933172757    -0.2191295871
Bq        -0.5118863215     2.4417871916    -0.2313946018
Bq        -0.5113998444     2.4902571076    -0.2436596165
Bq        -0.5109133673     2.5387270236    -0.2559246312
Bq        -0.5104268902     2.5871969395    -0.2681896459
Bq        -0.5099404130     2.6356668555    -0.2804546606
Bq        -0.5094539359     2.6841367715    -0.2927196754
Bq        -0.5089674588     2.7326066875    -0.3049846901
Bq        -0.5084809817     2.7810766034    -0.3172497048
Bq        -0.5079945046     2.8295465194    -0.3295147195
Bq        -0.5075080275     2.8780164354    -0.3417797342
Bq        -0.5070215504     2.9264863513    -0.3540447489
Bq        -0.5065350733     2.9749562673    -0.3663097636
Bq        -0.5060485961     3.0234261833    -0.3785747783
Bq        -0.5055621190     3.0718960992    -0.3908397931
Bq        -0.5050756419     3.1203660152    -0.4031048078
Bq        -0.5045891648     3.1688359312    -0.4153698225
Bq        -0.5041026877     3.2173058471    -0.4276348372
Bq        -0.5036162106     3.2657757631    -0.4398998519
Bq        -0.5031297335     3.3142456791    -0.4521648666
Bq        -0.5026432564     3.3627155951    -0.4644298813
Bq        -0.5021567792     3.4111855110    -0.4766948961
Bq        -0.5016703021     3.4596554270    -0.4889599108
Bq        -0.5011838250     3.5081253430    -0.5012249255
Bq        -0.5006973479     3.5565952589    -0.5134899402
Bq        -0.5002108708     3.6050651749    -0.5257549549
Bq        -0.4997243937     3.6535350909    -0.5380199696
Bq        -0.4992379166     3.7020050068    -0.5502849843
Bq        -0.4987514395     3.7504749228    -0.5625499991
Bq        -0.4982649623     3.7989448388    -0.5748150138
Bq        -0.4977784852     3.8474147548    -0.5870800285
Bq        -0.4972920081     3.8958846707    -0.5993450432
Bq        -0.4968055310     3.9443545867    -0.6116100579
Bq        -0.4963190539     3.9928245027    -0.6238750726
Bq        -0.4958325768     4.0412944186    -0.6361400873
Bq        -0.4953460997     4.0897643346    -0.6484051020
Bq        -0.4948596226     4.1382342506    -0.6606701168
Bq        -0.4943731455     4.1867041665    -0.6729351315
Bq        -0.4938866683     4.2351740825    -0.6852001462
Bq        -0.4934001912     4.2836439985    -0.6974651609
Bq        -0.4920871865    -0.5633475985     0.5310179424
Bq        -0.4916007094    -0.5148776825     0.5187529277
Bq        -0.4911142323    -0.4664077665     0.5064879130
Bq        -0.4906277552    -0.4179378506     0.4942228982
Bq        -0.4901412781    -0.3694679346     0.4819578835
Bq        -0.4896548010    -0.3209980186     0.4696928688
Bq        -0.4891683239    -0.2725281027     0.4574278541
Bq        -0.4886818467    -0.2240581867     0.4451628394
Bq        -0.4881953696    -0.1755882707     0.4328978247
Bq        -0.4877088925    -0.1271183548     0.4206328100
Bq        -0.4872224154    -0.0786484388     0.4083677953
Bq        -0.4867359383    -0.0301785228     0.3961027805
Bq        -0.4862494612     0.0182913932     0.3838377658
Bq        -0.4857629841     0.0667613091     0.3715727511
Bq        -0.4852765070     0.1152312251     0.3593077364
Bq        -0.4847900298     0.1637011411     0.3470427217
Bq        -0.4843035527     0.2121710570     0.3347777070
Bq        -0.4838170756     0.2606409730     0.3225126923
Bq        -0.4833305985     0.3091108890     0.3102476775
Bq        -0.4828441214     0.3575808049     0.2979826628
Bq        -0.4823576443     0.4060507209     0.2857176481
Bq        -0.4818711672     0.4545206369     0.2734526334
Bq        -0.4813846901     0.5029905529     0.2611876187
Bq        -0.4808982130     0.5514604688     0.2489226040
Bq        -0.4804117358     0.5999303848     0.2366575893
Bq        -0.4799252587     0.6484003008     0.2243925745
Bq        -0.4794387816     0.6968702167     0.2121275598
Bq        -0.4789523045     0.7453401327     0.1998625451
Bq        -0.4784658274     0.7938100487     0.1875975304
Bq        -0.4779793503     0.8422799646     0.1753325157

1
2
3
4
5
6
7
8
9
10
11
12
13
14
15
16
17
18
19
20
21
22
23
24
25
26
27
28
29
30
31
32
33
34
35
36
37
38
39
40
41
42
43
44
45
46
47
48
49
50
51
52
53
54
55
56
57
58
59
60
61
62
63
64
65
66
67
68
69
70
71
72
73
74
75
76
77
78
79
80
81
82
83
84
85
86
87
88
89
90
91
92
93
94
95
96
97
98
99
100
101
102
103
104
105
106
107
108
109
110
111
112
113
114
115
116
117
118
119
120
121
122
123
124
125
126
127
128
129
130
131
132
133
134
135
136
137
138
139
140
141
142
143
144
145
146
147
148
149
150
151
152
153
154
155
156
157
158
159
160
161
162
163
164
165
166
167
168
169
170
171
172
173
174
175
176
177
178
179
180
181
182
183
184
185
186
187
188
189
190
191
192
193
194
195
196
197
198
199
200
201
202
203
204
205
206
207
208
209
210
211
212
213
214
215
216
217
218
219
220
221
222
223
224
225
226
227
228
229
230
231
232
233
234
235
236

