%nproc=8
%mem=1000MB
# rb3lyp/6-311+g** NMR geom=connectivity

Title

0 1
C    -4.0500558   -0.5771862    0.8136712
H    -5.0263804   -1.0082727    1.0024760
C    -3.9381552    0.6617804    0.2400876
H    -4.8252424    1.2338890   -0.0111295
C    -2.6768410    1.2433246    0.0057578
C    -1.4974121    0.5051527    0.2848253
C    -1.6508332   -0.7338728    0.9404026
H    -0.7713646   -1.2730967    1.2633753
C    -2.8898548   -1.2624035    1.1994307
H    -2.9683706   -2.2124563    1.7152676
C    -2.5773185    2.5963696   -0.4192930
H    -3.4870728    3.1412239   -0.6474055
C    -1.3741895    3.2147896   -0.4364030
H    -1.2997315    4.2742019   -0.6578144
C    -0.1719488    2.4994090   -0.1734588
C    -0.2043917    1.1018437    0.0192689
C     1.0513491    3.2042560   -0.0676222
H     1.0427344    4.2819499   -0.1896997
C     2.1942091    2.5487446    0.2579577
H     3.1168527    3.0912848    0.4334727
C     2.2216473    1.1336562    0.2934990
C     1.0486931    0.3945528    0.0302412
C     3.4483363    0.4614633    0.5573939
H     4.3095794    1.0606054    0.8334846
C     3.5427346   -0.8855926    0.4749463
H     4.4731467   -1.3939704    0.7038822
C     2.4490052   -1.6474447   -0.0196319
C     1.2150704   -1.0057258   -0.3013573
C     0.2531113   -1.7434440   -1.0216591
H    -0.6541356   -1.2535051   -1.3462847
C     0.4494193   -3.0628597   -1.3413779
H    -0.3083162   -3.5944309   -1.9054060
C     1.6251726   -3.7207967   -0.9552541
H     1.7670048   -4.7687404   -1.1927019
C     2.6109872   -3.0144177   -0.3183050
H     3.5525612   -3.4902813   -0.0646367
Bq        -1.4669776492     1.8601482000    -0.1218654319
Bq        -1.4664911721     1.9086181160    -0.1341304466
Bq        -1.4660046950     1.9570880319    -0.1463954614
Bq        -1.4655182179     2.0055579479    -0.1586604761
Bq        -1.4650317408     2.0540278639    -0.1709254908
Bq        -1.4645452637     2.1024977798    -0.1831905055
Bq        -1.4640587866     2.1509676958    -0.1954555202
Bq        -1.4635723095     2.1994376118    -0.2077205349
Bq        -1.4630858324     2.2479075278    -0.2199855496
Bq        -1.4625993552     2.2963774437    -0.2322505644
Bq        -1.4621128781     2.3448473597    -0.2445155791
Bq        -1.4616264010     2.3933172757    -0.2567805938
Bq        -1.4611399239     2.4417871916    -0.2690456085
Bq        -1.4606534468     2.4902571076    -0.2813106232
Bq        -1.4601669697     2.5387270236    -0.2935756379
Bq        -1.4596804926     2.5871969395    -0.3058406526
Bq        -1.4591940155     2.6356668555    -0.3181056673
Bq        -1.4587075383     2.6841367715    -0.3303706821
Bq        -1.4582210612     2.7326066875    -0.3426356968
Bq        -1.4577345841     2.7810766034    -0.3549007115
Bq        -1.4572481070     2.8295465194    -0.3671657262
Bq        -1.4567616299     2.8780164354    -0.3794307409
Bq        -1.4562751528     2.9264863513    -0.3916957556
Bq        -1.4557886757     2.9749562673    -0.4039607703
Bq        -1.4553021986     3.0234261833    -0.4162257851
Bq        -1.4548157214     3.0718960992    -0.4284907998
Bq        -1.4543292443     3.1203660152    -0.4407558145
Bq        -1.4538427672     3.1688359312    -0.4530208292
Bq        -1.4533562901     3.2173058471    -0.4652858439
Bq        -1.4528698130     3.2657757631    -0.4775508586
Bq        -1.4523833359     3.3142456791    -0.4898158733
Bq        -1.4518968588     3.3627155951    -0.5020808881
Bq        -1.4514103817     3.4111855110    -0.5143459028
Bq        -1.4509239045     3.4596554270    -0.5266109175
Bq        -1.4504374274     3.5081253430    -0.5388759322
Bq        -1.4499509503     3.5565952589    -0.5511409469
Bq        -1.4494644732     3.6050651749    -0.5634059616
Bq        -1.4489779961     3.6535350909    -0.5756709763
Bq        -1.4484915190     3.7020050068    -0.5879359910
Bq        -1.4480050419     3.7504749228    -0.6002010058
Bq        -1.4475185648     3.7989448388    -0.6124660205
Bq        -1.4470320876     3.8474147548    -0.6247310352
Bq        -1.4465456105     3.8958846707    -0.6369960499
Bq        -1.4460591334     3.9443545867    -0.6492610646
Bq        -1.4455726563     3.9928245027    -0.6615260793
Bq        -1.4450861792     4.0412944186    -0.6737910940
Bq        -1.4445997021     4.0897643346    -0.6860561088
Bq        -1.4441132250     4.1382342506    -0.6983211235
Bq        -1.4436267479     4.1867041665    -0.7105861382
Bq        -1.4431402708     4.2351740825    -0.7228511529
Bq        -1.4426537936     4.2836439985    -0.7351161676
Bq        -1.4413407889    -0.5633475985     0.4933669357
Bq        -1.4408543118    -0.5148776825     0.4811019210
Bq        -1.4403678347    -0.4664077665     0.4688369063
Bq        -1.4398813576    -0.4179378506     0.4565718915
Bq        -1.4393948805    -0.3694679346     0.4443068768
Bq        -1.4389084034    -0.3209980186     0.4320418621
Bq        -1.4384219263    -0.2725281027     0.4197768474
Bq        -1.4379354492    -0.2240581867     0.4075118327
Bq        -1.4374489720    -0.1755882707     0.3952468180
Bq        -1.4369624949    -0.1271183548     0.3829818033
Bq        -1.4364760178    -0.0786484388     0.3707167885
Bq        -1.4359895407    -0.0301785228     0.3584517738
Bq        -1.4355030636     0.0182913932     0.3461867591
Bq        -1.4350165865     0.0667613091     0.3339217444
Bq        -1.4345301094     0.1152312251     0.3216567297
Bq        -1.4340436323     0.1637011411     0.3093917150
Bq        -1.4335571551     0.2121710570     0.2971267003
Bq        -1.4330706780     0.2606409730     0.2848616855
Bq        -1.4325842009     0.3091108890     0.2725966708
Bq        -1.4320977238     0.3575808049     0.2603316561
Bq        -1.4316112467     0.4060507209     0.2480666414
Bq        -1.4311247696     0.4545206369     0.2358016267
Bq        -1.4306382925     0.5029905529     0.2235366120
Bq        -1.4301518154     0.5514604688     0.2112715973
Bq        -1.4296653383     0.5999303848     0.1990065826
Bq        -1.4291788611     0.6484003008     0.1867415678
Bq        -1.4286923840     0.6968702167     0.1744765531
Bq        -1.4282059069     0.7453401327     0.1622115384
Bq        -1.4277194298     0.7938100487     0.1499465237
Bq        -1.4272329527     0.8422799646     0.1376815090
Bq        -1.4267464756     0.8907498806     0.1254164943
Bq        -1.4262599985     0.9392197966     0.1131514796
Bq        -1.4257735214     0.9876897125     0.1008864648
Bq        -1.4252870442     1.0361596285     0.0886214501
Bq        -1.4248005671     1.0846295445     0.0763564354
Bq        -1.4243140900     1.1330994605     0.0640914207
Bq        -1.4238276129     1.1815693764     0.0518264060
Bq        -1.4233411358     1.2300392924     0.0395613913
Bq        -1.4228546587     1.2785092084     0.0272963766
Bq        -1.4223681816     1.3269791243     0.0150313618
Bq        -1.4218817045     1.3754490403     0.0027663471
Bq        -1.4213952273     1.4239189563    -0.0094986676
Bq        -1.4209087502     1.4723888722    -0.0217636823
Bq        -1.4204222731     1.5208587882    -0.0340286970
Bq        -1.4199357960     1.5693287042    -0.0462937117
Bq        -1.4194493189     1.6177986202    -0.0585587264
Bq        -1.4189628418     1.6662685361    -0.0708237411
Bq        -1.4184763647     1.7147384521    -0.0830887559
Bq        -1.4179898876     1.7632083681    -0.0953537706
Bq        -1.4175034104     1.8116782840    -0.1076187853
Bq        -1.4170169333     1.8601482000    -0.1198838000
Bq        -1.4165304562     1.9086181160    -0.1321488147
Bq        -1.4160439791     1.9570880319    -0.1444138294
Bq        -1.4155575020     2.0055579479    -0.1566788441
Bq        -1.4150710249     2.0540278639    -0.1689438589
Bq        -1.4145845478     2.1024977798    -0.1812088736
Bq        -1.4140980707     2.1509676958    -0.1934738883
Bq        -1.4136115935     2.1994376118    -0.2057389030
Bq        -1.4131251164     2.2479075278    -0.2180039177
Bq        -1.4126386393     2.2963774437    -0.2302689324
Bq        -1.4121521622     2.3448473597    -0.2425339471
Bq        -1.4116656851     2.3933172757    -0.2547989618
Bq        -1.4111792080     2.4417871916    -0.2670639766
Bq        -1.4106927309     2.4902571076    -0.2793289913
Bq        -1.4102062538     2.5387270236    -0.2915940060
Bq        -1.4097197767     2.5871969395    -0.3038590207
Bq        -1.4092332995     2.6356668555    -0.3161240354
Bq        -1.4087468224     2.6841367715    -0.3283890501
Bq        -1.4082603453     2.7326066875    -0.3406540648
Bq        -1.4077738682     2.7810766034    -0.3529190796
Bq        -1.4072873911     2.8295465194    -0.3651840943
Bq        -1.4068009140     2.8780164354    -0.3774491090
Bq        -1.4063144369     2.9264863513    -0.3897141237
Bq        -1.4058279598     2.9749562673    -0.4019791384
Bq        -1.4053414826     3.0234261833    -0.4142441531
Bq        -1.4048550055     3.0718960992    -0.4265091678
Bq        -1.4043685284     3.1203660152    -0.4387741826
Bq        -1.4038820513     3.1688359312    -0.4510391973
Bq        -1.4033955742     3.2173058471    -0.4633042120
Bq        -1.4029090971     3.2657757631    -0.4755692267
Bq        -1.4024226200     3.3142456791    -0.4878342414
Bq        -1.4019361429     3.3627155951    -0.5000992561
Bq        -1.4014496657     3.4111855110    -0.5123642708
Bq        -1.4009631886     3.4596554270    -0.5246292855
Bq        -1.4004767115     3.5081253430    -0.5368943003
Bq        -1.3999902344     3.5565952589    -0.5491593150
Bq        -1.3995037573     3.6050651749    -0.5614243297
Bq        -1.3990172802     3.6535350909    -0.5736893444
Bq        -1.3985308031     3.7020050068    -0.5859543591
Bq        -1.3980443260     3.7504749228    -0.5982193738
Bq        -1.3975578488     3.7989448388    -0.6104843885
Bq        -1.3970713717     3.8474147548    -0.6227494033
Bq        -1.3965848946     3.8958846707    -0.6350144180
Bq        -1.3960984175     3.9443545867    -0.6472794327
Bq        -1.3956119404     3.9928245027    -0.6595444474
Bq        -1.3951254633     4.0412944186    -0.6718094621
Bq        -1.3946389862     4.0897643346    -0.6840744768
Bq        -1.3941525091     4.1382342506    -0.6963394915
Bq        -1.3936660319     4.1867041665    -0.7086045063
Bq        -1.3931795548     4.2351740825    -0.7208695210
Bq        -1.3926930777     4.2836439985    -0.7331345357
Bq        -1.3913800730    -0.5633475985     0.4953485676
Bq        -1.3908935959    -0.5148776825     0.4830835529
Bq        -1.3904071188    -0.4664077665     0.4708185382
Bq        -1.3899206417    -0.4179378506     0.4585535235
Bq        -1.3894341646    -0.3694679346     0.4462885088
Bq        -1.3889476875    -0.3209980186     0.4340234940
Bq        -1.3884612104    -0.2725281027     0.4217584793
Bq        -1.3879747332    -0.2240581867     0.4094934646
Bq        -1.3874882561    -0.1755882707     0.3972284499
Bq        -1.3870017790    -0.1271183548     0.3849634352
Bq        -1.3865153019    -0.0786484388     0.3726984205
Bq        -1.3860288248    -0.0301785228     0.3604334058
Bq        -1.3855423477     0.0182913932     0.3481683910
Bq        -1.3850558706     0.0667613091     0.3359033763
Bq        -1.3845693935     0.1152312251     0.3236383616
Bq        -1.3840829163     0.1637011411     0.3113733469
Bq        -1.3835964392     0.2121710570     0.2991083322
Bq        -1.3831099621     0.2606409730     0.2868433175
Bq        -1.3826234850     0.3091108890     0.2745783028
Bq        -1.3821370079     0.3575808049     0.2623132881
Bq        -1.3816505308     0.4060507209     0.2500482733
Bq        -1.3811640537     0.4545206369     0.2377832586
Bq        -1.3806775766     0.5029905529     0.2255182439
Bq        -1.3801910994     0.5514604688     0.2132532292
Bq        -1.3797046223     0.5999303848     0.2009882145
Bq        -1.3792181452     0.6484003008     0.1887231998
Bq        -1.3787316681     0.6968702167     0.1764581851
Bq        -1.3782451910     0.7453401327     0.1641931703
Bq        -1.3777587139     0.7938100487     0.1519281556
Bq        -1.3772722368     0.8422799646     0.1396631409
Bq        -1.3767857597     0.8907498806     0.1273981262
Bq        -1.3762992825     0.9392197966     0.1151331115
Bq        -1.3758128054     0.9876897125     0.1028680968
Bq        -1.3753263283     1.0361596285     0.0906030821
Bq        -1.3748398512     1.0846295445     0.0783380673
Bq        -1.3743533741     1.1330994605     0.0660730526
Bq        -1.3738668970     1.1815693764     0.0538080379
Bq        -1.3733804199     1.2300392924     0.0415430232
Bq        -1.3728939428     1.2785092084     0.0292780085
Bq        -1.3724074657     1.3269791243     0.0170129938
Bq        -1.3719209885     1.3754490403     0.0047479791
Bq        -1.3714345114     1.4239189563    -0.0075170356
Bq        -1.3709480343     1.4723888722    -0.0197820504
Bq        -1.3704615572     1.5208587882    -0.0320470651
Bq        -1.3699750801     1.5693287042    -0.0443120798
Bq        -1.3694886030     1.6177986202    -0.0565770945
Bq        -1.3690021259     1.6662685361    -0.0688421092
Bq        -1.3685156488     1.7147384521    -0.0811071239

1
2
3
4
5
6
7
8
9
10
11
12
13
14
15
16
17
18
19
20
21
22
23
24
25
26
27
28
29
30
31
32
33
34
35
36
37
38
39
40
41
42
43
44
45
46
47
48
49
50
51
52
53
54
55
56
57
58
59
60
61
62
63
64
65
66
67
68
69
70
71
72
73
74
75
76
77
78
79
80
81
82
83
84
85
86
87
88
89
90
91
92
93
94
95
96
97
98
99
100
101
102
103
104
105
106
107
108
109
110
111
112
113
114
115
116
117
118
119
120
121
122
123
124
125
126
127
128
129
130
131
132
133
134
135
136
137
138
139
140
141
142
143
144
145
146
147
148
149
150
151
152
153
154
155
156
157
158
159
160
161
162
163
164
165
166
167
168
169
170
171
172
173
174
175
176
177
178
179
180
181
182
183
184
185
186
187
188
189
190
191
192
193
194
195
196
197
198
199
200
201
202
203
204
205
206
207
208
209
210
211
212
213
214
215
216
217
218
219
220
221
222
223
224
225
226
227
228
229
230
231
232
233
234
235
236

