%nproc=8
%mem=1000MB
# rb3lyp/6-311+g** NMR geom=connectivity

Title

0 1
C    -4.0500558   -0.5771862    0.8136712
H    -5.0263804   -1.0082727    1.0024760
C    -3.9381552    0.6617804    0.2400876
H    -4.8252424    1.2338890   -0.0111295
C    -2.6768410    1.2433246    0.0057578
C    -1.4974121    0.5051527    0.2848253
C    -1.6508332   -0.7338728    0.9404026
H    -0.7713646   -1.2730967    1.2633753
C    -2.8898548   -1.2624035    1.1994307
H    -2.9683706   -2.2124563    1.7152676
C    -2.5773185    2.5963696   -0.4192930
H    -3.4870728    3.1412239   -0.6474055
C    -1.3741895    3.2147896   -0.4364030
H    -1.2997315    4.2742019   -0.6578144
C    -0.1719488    2.4994090   -0.1734588
C    -0.2043917    1.1018437    0.0192689
C     1.0513491    3.2042560   -0.0676222
H     1.0427344    4.2819499   -0.1896997
C     2.1942091    2.5487446    0.2579577
H     3.1168527    3.0912848    0.4334727
C     2.2216473    1.1336562    0.2934990
C     1.0486931    0.3945528    0.0302412
C     3.4483363    0.4614633    0.5573939
H     4.3095794    1.0606054    0.8334846
C     3.5427346   -0.8855926    0.4749463
H     4.4731467   -1.3939704    0.7038822
C     2.4490052   -1.6474447   -0.0196319
C     1.2150704   -1.0057258   -0.3013573
C     0.2531113   -1.7434440   -1.0216591
H    -0.6541356   -1.2535051   -1.3462847
C     0.4494193   -3.0628597   -1.3413779
H    -0.3083162   -3.5944309   -1.9054060
C     1.6251726   -3.7207967   -0.9552541
H     1.7670048   -4.7687404   -1.1927019
C     2.6109872   -3.0144177   -0.3183050
H     3.5525612   -3.4902813   -0.0646367
Bq         4.6790415723    -2.6337664569     0.4523976226
Bq         4.6771960470    -2.5842751098     0.4592678924
Bq         4.6753505217    -2.5347837628     0.4661381622
Bq         4.6735049965    -2.4852924158     0.4730084320
Bq         4.6716594712    -2.4358010688     0.4798787017
Bq         4.6698139459    -2.3863097218     0.4867489715
Bq         4.6679684207    -2.3368183748     0.4936192413
Bq         4.6661228954    -2.2873270277     0.5004895111
Bq         4.6642773701    -2.2378356807     0.5073597809
Bq         4.6624318449    -2.1883443337     0.5142300506
Bq         4.6605863196    -2.1388529867     0.5211003204
Bq         4.6587407943    -2.0893616397     0.5279705902
Bq         4.6568952691    -2.0398702926     0.5348408600
Bq         4.6550497438    -1.9903789456     0.5417111298
Bq         4.6532042185    -1.9408875986     0.5485813995
Bq         4.6513586933    -1.8913962516     0.5554516693
Bq         4.6495131680    -1.8419049046     0.5623219391
Bq         4.6476676427    -1.7924135576     0.5691922089
Bq         4.6458221175    -1.7429222105     0.5760624787
Bq         4.6439765922    -1.6934308635     0.5829327484
Bq         4.6421310669    -1.6439395165     0.5898030182
Bq         4.6402855417    -1.5944481695     0.5966732880
Bq         4.6384400164    -1.5449568225     0.6035435578
Bq         4.6365944911    -1.4954654754     0.6104138276
Bq         4.6347489659    -1.4459741284     0.6172840973
Bq         4.6329034406    -1.3964827814     0.6241543671
Bq         4.6310579153    -1.3469914344     0.6310246369
Bq         4.6292123900    -1.2975000874     0.6378949067
Bq         4.6273668648    -1.2480087404     0.6447651765
Bq         4.6255213395    -1.1985173933     0.6516354462
Bq         4.6236758142    -1.1490260463     0.6585057160
Bq         4.6218302890    -1.0995346993     0.6653759858
Bq         4.6199847637    -1.0500433523     0.6722462556
Bq         4.6181392384    -1.0005520053     0.6791165253
Bq         4.6162937132    -0.9510606583     0.6859867951
Bq         4.6144481879    -0.9015693112     0.6928570649
Bq         4.6126026626    -0.8520779642     0.6997273347
Bq         4.6107571374    -0.8025866172     0.7065976045
Bq         4.6089116121    -0.7530952702     0.7134678742
Bq         4.6070660868    -0.7036039232     0.7203381440
Bq         4.6052205616    -0.6541125761     0.7272084138
Bq         4.6033750363    -0.6046212291     0.7340786836
Bq         4.6015295110    -0.5551298821     0.7409489534
Bq         4.5996839858    -0.5056385351     0.7478192231
Bq         4.5978384605    -0.4561471881     0.7546894929
Bq         4.5959929352    -0.4066558411     0.7615597627
Bq         4.5941474100    -0.3571644940     0.7684300325
Bq         4.5923018847    -0.3076731470     0.7753003023
Bq         4.5904563594    -0.2581818000     0.7821705720
Bq         4.5886108342    -0.2086904530     0.7890408418
Bq         4.5867653089    -0.1591991060     0.7959111116
Bq         4.5849197836    -0.1097077589     0.8027813814
Bq         4.5830742584    -0.0602164119     0.8096516512
Bq         4.5812287331    -0.0107250649     0.8165219209
Bq         4.5793832078     0.0387662821     0.8233921907
Bq         4.5775376826     0.0882576291     0.8302624605
Bq         4.5756921573     0.1377489761     0.8371327303
Bq         4.5738466320     0.1872403232     0.8440030001
Bq         4.5720011067     0.2367316702     0.8508732698
Bq         4.5701555815     0.2862230172     0.8577435396
Bq         4.5683100562     0.3357143642     0.8646138094
Bq         4.5664645309     0.3852057112     0.8714840792
Bq         4.5646190057     0.4346970583     0.8783543490
Bq         4.5627734804     0.4841884053     0.8852246187
Bq         4.5609279551     0.5336797523     0.8920948885
Bq         4.5590824299     0.5831710993     0.8989651583
Bq         4.5572369046     0.6326624463     0.9058354281
Bq         4.5553913793     0.6821537933     0.9127056979
Bq         4.5535458541     0.7316451404     0.9195759676
Bq         4.5517003288     0.7811364874     0.9264462374
Bq         4.5498548035     0.8306278344     0.9333165072
Bq         4.5480092783     0.8801191814     0.9401867770
Bq         4.5461637530     0.9296105284     0.9470570467
Bq         4.5443182277     0.9791018754     0.9539273165
Bq         4.5424727025     1.0285932225     0.9607975863
Bq         4.5406271772     1.0780845695     0.9676678561
Bq         4.5387816519     1.1275759165     0.9745381259
Bq         4.5369361267     1.1770672635     0.9814083956
Bq         4.5350906014     1.2265586105     0.9882786654
Bq         4.5332450761     1.2760499576     0.9951489352
Bq         4.5313995509     1.3255413046     1.0020192050
Bq         4.5295540256     1.3750326516     1.0088894748
Bq         4.5277085003     1.4245239986     1.0157597445
Bq         4.5258629751     1.4740153456     1.0226300143
Bq         4.5240174498     1.5235066926     1.0295002841
Bq         4.5221719245     1.5729980397     1.0363705539
Bq         4.5203263993     1.6224893867     1.0432408237
Bq         4.5184808740     1.6719807337     1.0501110934
Bq         4.5166353487     1.7214720807     1.0569813632
Bq         4.5147898235     1.7709634277     1.0638516330
Bq         4.5129442982     1.8204547748     1.0707219028
Bq         4.5110987729     1.8699461218     1.0775921726
Bq         4.5092532476     1.9194374688     1.0844624423
Bq         4.5074077224     1.9689288158     1.0913327121
Bq         4.5055621971     2.0184201628     1.0982029819
Bq         4.5037166718     2.0679115098     1.1050732517
Bq         4.5018711466     2.1174028569     1.1119435215
Bq         4.5000256213     2.1668942039     1.1188137912
Bq         4.4981800960     2.2163855509     1.1256840610
Bq         4.7310207478    -2.7327491509     0.4516284740
Bq         4.7291752226    -2.6832578039     0.4584987437
Bq         4.7273296973    -2.6337664569     0.4653690135
Bq         4.7254841720    -2.5842751098     0.4722392833
Bq         4.7236386468    -2.5347837628     0.4791095531
Bq         4.7217931215    -2.4852924158     0.4859798229
Bq         4.7199475962    -2.4358010688     0.4928500926
Bq         4.7181020710    -2.3863097218     0.4997203624
Bq         4.7162565457    -2.3368183748     0.5065906322
Bq         4.7144110204    -2.2873270277     0.5134609020
Bq         4.7125654952    -2.2378356807     0.5203311718
Bq         4.7107199699    -2.1883443337     0.5272014415
Bq         4.7088744446    -2.1388529867     0.5340717113
Bq         4.7070289194    -2.0893616397     0.5409419811
Bq         4.7051833941    -2.0398702926     0.5478122509
Bq         4.7033378688    -1.9903789456     0.5546825207
Bq         4.7014923436    -1.9408875986     0.5615527904
Bq         4.6996468183    -1.8913962516     0.5684230602
Bq         4.6978012930    -1.8419049046     0.5752933300
Bq         4.6959557677    -1.7924135576     0.5821635998
Bq         4.6941102425    -1.7429222105     0.5890338696
Bq         4.6922647172    -1.6934308635     0.5959041393
Bq         4.6904191919    -1.6439395165     0.6027744091
Bq         4.6885736667    -1.5944481695     0.6096446789
Bq         4.6867281414    -1.5449568225     0.6165149487
Bq         4.6848826161    -1.4954654754     0.6233852184
Bq         4.6830370909    -1.4459741284     0.6302554882
Bq         4.6811915656    -1.3964827814     0.6371257580
Bq         4.6793460403    -1.3469914344     0.6439960278
Bq         4.6775005151    -1.2975000874     0.6508662976
Bq         4.6756549898    -1.2480087404     0.6577365673
Bq         4.6738094645    -1.1985173933     0.6646068371
Bq         4.6719639393    -1.1490260463     0.6714771069
Bq         4.6701184140    -1.0995346993     0.6783473767
Bq         4.6682728887    -1.0500433523     0.6852176465
Bq         4.6664273635    -1.0005520053     0.6920879162
Bq         4.6645818382    -0.9510606583     0.6989581860
Bq         4.6627363129    -0.9015693112     0.7058284558
Bq         4.6608907877    -0.8520779642     0.7126987256
Bq         4.6590452624    -0.8025866172     0.7195689954
Bq         4.6571997371    -0.7530952702     0.7264392651
Bq         4.6553542119    -0.7036039232     0.7333095349
Bq         4.6535086866    -0.6541125761     0.7401798047
Bq         4.6516631613    -0.6046212291     0.7470500745
Bq         4.6498176361    -0.5551298821     0.7539203443
Bq         4.6479721108    -0.5056385351     0.7607906140
Bq         4.6461265855    -0.4561471881     0.7676608838
Bq         4.6442810603    -0.4066558411     0.7745311536
Bq         4.6424355350    -0.3571644940     0.7814014234
Bq         4.6405900097    -0.3076731470     0.7882716932
Bq         4.6387444844    -0.2581818000     0.7951419629
Bq         4.6368989592    -0.2086904530     0.8020122327
Bq         4.6350534339    -0.1591991060     0.8088825025
Bq         4.6332079086    -0.1097077589     0.8157527723
Bq         4.6313623834    -0.0602164119     0.8226230421
Bq         4.6295168581    -0.0107250649     0.8294933118
Bq         4.6276713328     0.0387662821     0.8363635816
Bq         4.6258258076     0.0882576291     0.8432338514
Bq         4.6239802823     0.1377489761     0.8501041212
Bq         4.6221347570     0.1872403232     0.8569743910
Bq         4.6202892318     0.2367316702     0.8638446607
Bq         4.6184437065     0.2862230172     0.8707149305
Bq         4.6165981812     0.3357143642     0.8775852003
Bq         4.6147526560     0.3852057112     0.8844554701
Bq         4.6129071307     0.4346970583     0.8913257398
Bq         4.6110616054     0.4841884053     0.8981960096
Bq         4.6092160802     0.5336797523     0.9050662794
Bq         4.6073705549     0.5831710993     0.9119365492
Bq         4.6055250296     0.6326624463     0.9188068190
Bq         4.6036795044     0.6821537933     0.9256770887
Bq         4.6018339791     0.7316451404     0.9325473585
Bq         4.5999884538     0.7811364874     0.9394176283
Bq         4.5981429286     0.8306278344     0.9462878981
Bq         4.5962974033     0.8801191814     0.9531581679
Bq         4.5944518780     0.9296105284     0.9600284376
Bq         4.5926063528     0.9791018754     0.9668987074
Bq         4.5907608275     1.0285932225     0.9737689772
Bq         4.5889153022     1.0780845695     0.9806392470
Bq         4.5870697770     1.1275759165     0.9875095168
Bq         4.5852242517     1.1770672635     0.9943797865
Bq         4.5833787264     1.2265586105     1.0012500563
Bq         4.5815332012     1.2760499576     1.0081203261
Bq         4.5796876759     1.3255413046     1.0149905959
Bq         4.5778421506     1.3750326516     1.0218608657
Bq         4.5759966253     1.4245239986     1.0287311354
Bq         4.5741511001     1.4740153456     1.0356014052
Bq         4.5723055748     1.5235066926     1.0424716750
Bq         4.5704600495     1.5729980397     1.0493419448
Bq         4.5686145243     1.6224893867     1.0562122146
Bq         4.5667689990     1.6719807337     1.0630824843
Bq         4.5649234737     1.7214720807     1.0699527541
Bq         4.5630779485     1.7709634277     1.0768230239
Bq         4.5612324232     1.8204547748     1.0836932937
Bq         4.5593868979     1.8699461218     1.0905635635
Bq         4.5575413727     1.9194374688     1.0974338332
Bq         4.5556958474     1.9689288158     1.1043041030
Bq         4.5538503221     2.0184201628     1.1111743728
Bq         4.5520047969     2.0679115098     1.1180446426
Bq         4.5501592716     2.1174028569     1.1249149123
Bq         4.5483137463     2.1668942039     1.1317851821
Bq         4.5464682211     2.2163855509     1.1386554519

1
2
3
4
5
6
7
8
9
10
11
12
13
14
15
16
17
18
19
20
21
22
23
24
25
26
27
28
29
30
31
32
33
34
35
36
37
38
39
40
41
42
43
44
45
46
47
48
49
50
51
52
53
54
55
56
57
58
59
60
61
62
63
64
65
66
67
68
69
70
71
72
73
74
75
76
77
78
79
80
81
82
83
84
85
86
87
88
89
90
91
92
93
94
95
96
97
98
99
100
101
102
103
104
105
106
107
108
109
110
111
112
113
114
115
116
117
118
119
120
121
122
123
124
125
126
127
128
129
130
131
132
133
134
135
136
137
138
139
140
141
142
143
144
145
146
147
148
149
150
151
152
153
154
155
156
157
158
159
160
161
162
163
164
165
166
167
168
169
170
171
172
173
174
175
176
177
178
179
180
181
182
183
184
185
186
187
188
189
190
191
192
193
194
195
196
197
198
199
200
201
202
203
204
205
206
207
208
209
210
211
212
213
214
215
216
217
218
219
220
221
222
223
224
225
226
227
228
229
230
231
232
233
234
235
236

