%nproc=8
%mem=1000MB
# rb3lyp/6-311+g** NMR geom=connectivity

Title

0 1
C    -4.0500558   -0.5771862    0.8136712
H    -5.0263804   -1.0082727    1.0024760
C    -3.9381552    0.6617804    0.2400876
H    -4.8252424    1.2338890   -0.0111295
C    -2.6768410    1.2433246    0.0057578
C    -1.4974121    0.5051527    0.2848253
C    -1.6508332   -0.7338728    0.9404026
H    -0.7713646   -1.2730967    1.2633753
C    -2.8898548   -1.2624035    1.1994307
H    -2.9683706   -2.2124563    1.7152676
C    -2.5773185    2.5963696   -0.4192930
H    -3.4870728    3.1412239   -0.6474055
C    -1.3741895    3.2147896   -0.4364030
H    -1.2997315    4.2742019   -0.6578144
C    -0.1719488    2.4994090   -0.1734588
C    -0.2043917    1.1018437    0.0192689
C     1.0513491    3.2042560   -0.0676222
H     1.0427344    4.2819499   -0.1896997
C     2.1942091    2.5487446    0.2579577
H     3.1168527    3.0912848    0.4334727
C     2.2216473    1.1336562    0.2934990
C     1.0486931    0.3945528    0.0302412
C     3.4483363    0.4614633    0.5573939
H     4.3095794    1.0606054    0.8334846
C     3.5427346   -0.8855926    0.4749463
H     4.4731467   -1.3939704    0.7038822
C     2.4490052   -1.6474447   -0.0196319
C     1.2150704   -1.0057258   -0.3013573
C     0.2531113   -1.7434440   -1.0216591
H    -0.6541356   -1.2535051   -1.3462847
C     0.4494193   -3.0628597   -1.3413779
H    -0.3083162   -3.5944309   -1.9054060
C     1.6251726   -3.7207967   -0.9552541
H     1.7670048   -4.7687404   -1.1927019
C     2.6109872   -3.0144177   -0.3183050
H     3.5525612   -3.4902813   -0.0646367
Bq         1.6944359367    -2.6549603815    -0.6289138323
Bq         1.6889327000    -2.6067638901    -0.6167972071
Bq         1.6834294634    -2.5585673988    -0.6046805818
Bq         1.6779262267    -2.5103709074    -0.5925639566
Bq         1.6724229900    -2.4621744160    -0.5804473314
Bq         1.6669197533    -2.4139779247    -0.5683307062
Bq         1.6614165166    -2.3657814333    -0.5562140809
Bq         1.6559132799    -2.3175849420    -0.5440974557
Bq         1.6504100432    -2.2693884506    -0.5319808305
Bq         1.6449068066    -2.2211919593    -0.5198642052
Bq         1.6394035699    -2.1729954679    -0.5077475800
Bq         1.6339003332    -2.1247989766    -0.4956309548
Bq         1.6283970965    -2.0766024852    -0.4835143296
Bq         1.6228938598    -2.0284059938    -0.4713977043
Bq         1.6173906231    -1.9802095025    -0.4592810791
Bq         1.6118873864    -1.9320130111    -0.4471644539
Bq         1.6063841498    -1.8838165198    -0.4350478286
Bq         1.6008809131    -1.8356200284    -0.4229312034
Bq         1.5953776764    -1.7874235371    -0.4108145782
Bq         1.5898744397    -1.7392270457    -0.3986979530
Bq         1.5843712030    -1.6910305543    -0.3865813277
Bq         1.5788679663    -1.6428340630    -0.3744647025
Bq         1.5733647296    -1.5946375716    -0.3623480773
Bq         1.5678614930    -1.5464410803    -0.3502314520
Bq         1.5623582563    -1.4982445889    -0.3381148268
Bq         1.5568550196    -1.4500480976    -0.3259982016
Bq         1.5513517829    -1.4018516062    -0.3138815763
Bq         1.5458485462    -1.3536551149    -0.3017649511
Bq         1.5403453095    -1.3054586235    -0.2896483259
Bq         1.5348420728    -1.2572621321    -0.2775317007
Bq         1.5293388362    -1.2090656408    -0.2654150754
Bq         1.5238355995    -1.1608691494    -0.2532984502
Bq         1.5183323628    -1.1126726581    -0.2411818250
Bq         1.5128291261    -1.0644761667    -0.2290651997
Bq         1.5073258894    -1.0162796754    -0.2169485745
Bq         1.5018226527    -0.9680831840    -0.2048319493
Bq         1.4963194160    -0.9198866927    -0.1927153241
Bq         1.4908161793    -0.8716902013    -0.1805986988
Bq         1.4853129427    -0.8234937099    -0.1684820736
Bq         1.4798097060    -0.7752972186    -0.1563654484
Bq         1.4743064693    -0.7271007272    -0.1442488231
Bq         1.4688032326    -0.6789042359    -0.1321321979
Bq         1.4632999959    -0.6307077445    -0.1200155727
Bq         1.4577967592    -0.5825112532    -0.1078989475
Bq         1.4522935225    -0.5343147618    -0.0957823222
Bq         1.4467902859    -0.4861182704    -0.0836656970
Bq         1.4412870492    -0.4379217791    -0.0715490718
Bq         1.4357838125    -0.3897252877    -0.0594324465
Bq         1.4302805758    -0.3415287964    -0.0473158213
Bq         1.4247773391    -0.2933323050    -0.0351991961
Bq         1.4192741024    -0.2451358137    -0.0230825709
Bq         1.4137708657    -0.1969393223    -0.0109659456
Bq         1.4082676291    -0.1487428310     0.0011506796
Bq         1.4027643924    -0.1005463396     0.0132673048
Bq         1.3972611557    -0.0523498482     0.0253839301
Bq         1.3917579190    -0.0041533569     0.0375005553
Bq         1.3862546823     0.0440431345     0.0496171805
Bq         1.9821027876    -4.7756060011    -1.1413686486
Bq         1.9765995509    -4.7274095098    -1.1292520233
Bq         1.9710963142    -4.6792130184    -1.1171353981
Bq         1.9655930775    -4.6310165271    -1.1050187729
Bq         1.9600898408    -4.5828200357    -1.0929021476
Bq         1.9545866041    -4.5346235444    -1.0807855224
Bq         1.9490833675    -4.4864270530    -1.0686688972
Bq         1.9435801308    -4.4382305616    -1.0565522720
Bq         1.9380768941    -4.3900340703    -1.0444356467
Bq         1.9325736574    -4.3418375789    -1.0323190215
Bq         1.9270704207    -4.2936410876    -1.0202023963
Bq         1.9215671840    -4.2454445962    -1.0080857710
Bq         1.9160639473    -4.1972481049    -0.9959691458
Bq         1.9105607107    -4.1490516135    -0.9838525206
Bq         1.9050574740    -4.1008551222    -0.9717358954
Bq         1.8995542373    -4.0526586308    -0.9596192701
Bq         1.8940510006    -4.0044621394    -0.9475026449
Bq         1.8885477639    -3.9562656481    -0.9353860197
Bq         1.8830445272    -3.9080691567    -0.9232693944
Bq         1.8775412905    -3.8598726654    -0.9111527692
Bq         1.8720380539    -3.8116761740    -0.8990361440
Bq         1.8665348172    -3.7634796827    -0.8869195188
Bq         1.8610315805    -3.7152831913    -0.8748028935
Bq         1.8555283438    -3.6670866999    -0.8626862683
Bq         1.8500251071    -3.6188902086    -0.8505696431
Bq         1.8445218704    -3.5706937172    -0.8384530178
Bq         1.8390186337    -3.5224972259    -0.8263363926
Bq         1.8335153971    -3.4743007345    -0.8142197674
Bq         1.8280121604    -3.4261042432    -0.8021031422
Bq         1.8225089237    -3.3779077518    -0.7899865169
Bq         1.8170056870    -3.3297112605    -0.7778698917
Bq         1.8115024503    -3.2815147691    -0.7657532665
Bq         1.8059992136    -3.2333182777    -0.7536366412
Bq         1.8004959769    -3.1851217864    -0.7415200160
Bq         1.7949927403    -3.1369252950    -0.7294033908
Bq         1.7894895036    -3.0887288037    -0.7172867655
Bq         1.7839862669    -3.0405323123    -0.7051701403
Bq         1.7784830302    -2.9923358210    -0.6930535151
Bq         1.7729797935    -2.9441393296    -0.6809368899
Bq         1.7674765568    -2.8959428383    -0.6688202646
Bq         1.7619733201    -2.8477463469    -0.6567036394
Bq         1.7564700834    -2.7995498555    -0.6445870142
Bq         1.7509668468    -2.7513533642    -0.6324703889
Bq         1.7454636101    -2.7031568728    -0.6203537637
Bq         1.7399603734    -2.6549603815    -0.6082371385
Bq         1.7344571367    -2.6067638901    -0.5961205133
Bq         1.7289539000    -2.5585673988    -0.5840038880
Bq         1.7234506633    -2.5103709074    -0.5718872628
Bq         1.7179474266    -2.4621744160    -0.5597706376
Bq         1.7124441900    -2.4139779247    -0.5476540123
Bq         1.7069409533    -2.3657814333    -0.5355373871
Bq         1.7014377166    -2.3175849420    -0.5234207619
Bq         1.6959344799    -2.2693884506    -0.5113041367
Bq         1.6904312432    -2.2211919593    -0.4991875114
Bq         1.6849280065    -2.1729954679    -0.4870708862
Bq         1.6794247698    -2.1247989766    -0.4749542610
Bq         1.6739215332    -2.0766024852    -0.4628376357
Bq         1.6684182965    -2.0284059938    -0.4507210105
Bq         1.6629150598    -1.9802095025    -0.4386043853
Bq         1.6574118231    -1.9320130111    -0.4264877601
Bq         1.6519085864    -1.8838165198    -0.4143711348
Bq         1.6464053497    -1.8356200284    -0.4022545096
Bq         1.6409021130    -1.7874235371    -0.3901378844
Bq         1.6353988764    -1.7392270457    -0.3780212591
Bq         1.6298956397    -1.6910305543    -0.3659046339
Bq         1.6243924030    -1.6428340630    -0.3537880087
Bq         1.6188891663    -1.5946375716    -0.3416713835
Bq         1.6133859296    -1.5464410803    -0.3295547582
Bq         1.6078826929    -1.4982445889    -0.3174381330
Bq         1.6023794562    -1.4500480976    -0.3053215078
Bq         1.5968762196    -1.4018516062    -0.2932048825
Bq         1.5913729829    -1.3536551149    -0.2810882573
Bq         1.5858697462    -1.3054586235    -0.2689716321
Bq         1.5803665095    -1.2572621321    -0.2568550068
Bq         1.5748632728    -1.2090656408    -0.2447383816
Bq         1.5693600361    -1.1608691494    -0.2326217564
Bq         1.5638567994    -1.1126726581    -0.2205051312
Bq         1.5583535628    -1.0644761667    -0.2083885059
Bq         1.5528503261    -1.0162796754    -0.1962718807
Bq         1.5473470894    -0.9680831840    -0.1841552555
Bq         1.5418438527    -0.9198866927    -0.1720386302
Bq         1.5363406160    -0.8716902013    -0.1599220050
Bq         1.5308373793    -0.8234937099    -0.1478053798
Bq         1.5253341426    -0.7752972186    -0.1356887546
Bq         1.5198309059    -0.7271007272    -0.1235721293
Bq         1.5143276693    -0.6789042359    -0.1114555041
Bq         1.5088244326    -0.6307077445    -0.0993388789
Bq         1.5033211959    -0.5825112532    -0.0872222536
Bq         1.4978179592    -0.5343147618    -0.0751056284
Bq         1.4923147225    -0.4861182704    -0.0629890032
Bq         1.4868114858    -0.4379217791    -0.0508723780
Bq         1.4813082491    -0.3897252877    -0.0387557527
Bq         1.4758050125    -0.3415287964    -0.0266391275
Bq         1.4703017758    -0.2933323050    -0.0145225023
Bq         1.4647985391    -0.2451358137    -0.0024058770
Bq         1.4592953024    -0.1969393223     0.0097107482
Bq         1.4537920657    -0.1487428310     0.0218273734
Bq         1.4482888290    -0.1005463396     0.0339439986
Bq         1.4427855923    -0.0523498482     0.0460606239
Bq         1.4372823557    -0.0041533569     0.0581772491
Bq         1.4317791190     0.0440431345     0.0702938743
Bq         2.0276272242    -4.7756060011    -1.1206919548
Bq         2.0221239875    -4.7274095098    -1.1085753295
Bq         2.0166207509    -4.6792130184    -1.0964587043
Bq         2.0111175142    -4.6310165271    -1.0843420791
Bq         2.0056142775    -4.5828200357    -1.0722254538
Bq         2.0001110408    -4.5346235444    -1.0601088286
Bq         1.9946078041    -4.4864270530    -1.0479922034
Bq         1.9891045674    -4.4382305616    -1.0358755781
Bq         1.9836013307    -4.3900340703    -1.0237589529
Bq         1.9780980941    -4.3418375789    -1.0116423277
Bq         1.9725948574    -4.2936410876    -0.9995257025
Bq         1.9670916207    -4.2454445962    -0.9874090772
Bq         1.9615883840    -4.1972481049    -0.9752924520
Bq         1.9560851473    -4.1490516135    -0.9631758268
Bq         1.9505819106    -4.1008551222    -0.9510592015
Bq         1.9450786739    -4.0526586308    -0.9389425763
Bq         1.9395754373    -4.0044621394    -0.9268259511
Bq         1.9340722006    -3.9562656481    -0.9147093259
Bq         1.9285689639    -3.9080691567    -0.9025927006
Bq         1.9230657272    -3.8598726654    -0.8904760754
Bq         1.9175624905    -3.8116761740    -0.8783594502
Bq         1.9120592538    -3.7634796827    -0.8662428249
Bq         1.9065560171    -3.7152831913    -0.8541261997
Bq         1.9010527805    -3.6670866999    -0.8420095745
Bq         1.8955495438    -3.6188902086    -0.8298929493
Bq         1.8900463071    -3.5706937172    -0.8177763240
Bq         1.8845430704    -3.5224972259    -0.8056596988
Bq         1.8790398337    -3.4743007345    -0.7935430736
Bq         1.8735365970    -3.4261042432    -0.7814264483
Bq         1.8680333603    -3.3779077518    -0.7693098231
Bq         1.8625301237    -3.3297112605    -0.7571931979
Bq         1.8570268870    -3.2815147691    -0.7450765727
Bq         1.8515236503    -3.2333182777    -0.7329599474
Bq         1.8460204136    -3.1851217864    -0.7208433222
Bq         1.8405171769    -3.1369252950    -0.7087266970
Bq         1.8350139402    -3.0887288037    -0.6966100717
Bq         1.8295107035    -3.0405323123    -0.6844934465
Bq         1.8240074668    -2.9923358210    -0.6723768213
Bq         1.8185042302    -2.9441393296    -0.6602601960
Bq         1.8130009935    -2.8959428383    -0.6481435708
Bq         1.8074977568    -2.8477463469    -0.6360269456
Bq         1.8019945201    -2.7995498555    -0.6239103204

1
2
3
4
5
6
7
8
9
10
11
12
13
14
15
16
17
18
19
20
21
22
23
24
25
26
27
28
29
30
31
32
33
34
35
36
37
38
39
40
41
42
43
44
45
46
47
48
49
50
51
52
53
54
55
56
57
58
59
60
61
62
63
64
65
66
67
68
69
70
71
72
73
74
75
76
77
78
79
80
81
82
83
84
85
86
87
88
89
90
91
92
93
94
95
96
97
98
99
100
101
102
103
104
105
106
107
108
109
110
111
112
113
114
115
116
117
118
119
120
121
122
123
124
125
126
127
128
129
130
131
132
133
134
135
136
137
138
139
140
141
142
143
144
145
146
147
148
149
150
151
152
153
154
155
156
157
158
159
160
161
162
163
164
165
166
167
168
169
170
171
172
173
174
175
176
177
178
179
180
181
182
183
184
185
186
187
188
189
190
191
192
193
194
195
196
197
198
199
200
201
202
203
204
205
206
207
208
209
210
211
212
213
214
215
216
217
218
219
220
221
222
223
224
225
226
227
228
229
230
231
232
233
234
235
236

