%nproc=8
%mem=1000MB
# rb3lyp/6-311+g** NMR geom=connectivity

Title

0 1
C    -4.0500558   -0.5771862    0.8136712
H    -5.0263804   -1.0082727    1.0024760
C    -3.9381552    0.6617804    0.2400876
H    -4.8252424    1.2338890   -0.0111295
C    -2.6768410    1.2433246    0.0057578
C    -1.4974121    0.5051527    0.2848253
C    -1.6508332   -0.7338728    0.9404026
H    -0.7713646   -1.2730967    1.2633753
C    -2.8898548   -1.2624035    1.1994307
H    -2.9683706   -2.2124563    1.7152676
C    -2.5773185    2.5963696   -0.4192930
H    -3.4870728    3.1412239   -0.6474055
C    -1.3741895    3.2147896   -0.4364030
H    -1.2997315    4.2742019   -0.6578144
C    -0.1719488    2.4994090   -0.1734588
C    -0.2043917    1.1018437    0.0192689
C     1.0513491    3.2042560   -0.0676222
H     1.0427344    4.2819499   -0.1896997
C     2.1942091    2.5487446    0.2579577
H     3.1168527    3.0912848    0.4334727
C     2.2216473    1.1336562    0.2934990
C     1.0486931    0.3945528    0.0302412
C     3.4483363    0.4614633    0.5573939
H     4.3095794    1.0606054    0.8334846
C     3.5427346   -0.8855926    0.4749463
H     4.4731467   -1.3939704    0.7038822
C     2.4490052   -1.6474447   -0.0196319
C     1.2150704   -1.0057258   -0.3013573
C     0.2531113   -1.7434440   -1.0216591
H    -0.6541356   -1.2535051   -1.3462847
C     0.4494193   -3.0628597   -1.3413779
H    -0.3083162   -3.5944309   -1.9054060
C     1.6251726   -3.7207967   -0.9552541
H     1.7670048   -4.7687404   -1.1927019
C     2.6109872   -3.0144177   -0.3183050
H     3.5525612   -3.4902813   -0.0646367
Bq        -4.7305959033     1.6837756607    -0.2531348998
Bq        -4.7305104372     1.7288013571    -0.2748760903
Bq        -4.7304249710     1.7738270534    -0.2966172809
Bq        -4.7303395049     1.8188527497    -0.3183584714
Bq        -4.7302540388     1.8638784461    -0.3400996619
Bq        -4.7301685726     1.9089041424    -0.3618408524
Bq        -4.7300831065     1.9539298388    -0.3835820429
Bq        -4.7299976403     1.9989555351    -0.4053232334
Bq        -4.7299121742     2.0439812314    -0.4270644240
Bq        -4.7298267081     2.0890069278    -0.4488056145
Bq        -4.7297412419     2.1340326241    -0.4705468050
Bq        -4.7296557758     2.1790583204    -0.4922879955
Bq        -4.7295703097     2.2240840168    -0.5140291860
Bq        -4.6881173097    -2.2784856168     1.6602864176
Bq        -4.6880318436    -2.2334599204     1.6385452271
Bq        -4.6879463775    -2.1884342241     1.6168040365
Bq        -4.6878609113    -2.1434085278     1.5950628460
Bq        -4.6877754452    -2.0983828314     1.5733216555
Bq        -4.6876899790    -2.0533571351     1.5515804650
Bq        -4.6876045129    -2.0083314388     1.5298392745
Bq        -4.6875190468    -1.9633057424     1.5080980840
Bq        -4.6874335806    -1.9182800461     1.4863568934
Bq        -4.6873481145    -1.8732543497     1.4646157029
Bq        -4.6872626484    -1.8282286534     1.4428745124
Bq        -4.6871771822    -1.7832029571     1.4211333219
Bq        -4.6870917161    -1.7381772607     1.3993921314
Bq        -4.6870062499    -1.6931515644     1.3776509409
Bq        -4.6869207838    -1.6481258681     1.3559097503
Bq        -4.6868353177    -1.6031001717     1.3341685598
Bq        -4.6867498515    -1.5580744754     1.3124273693
Bq        -4.6866643854    -1.5130487791     1.2906861788
Bq        -4.6865789193    -1.4680230827     1.2689449883
Bq        -4.6864934531    -1.4229973864     1.2472037978
Bq        -4.6864079870    -1.3779716901     1.2254626073
Bq        -4.6863225208    -1.3329459937     1.2037214167
Bq        -4.6862370547    -1.2879202974     1.1819802262
Bq        -4.6861515886    -1.2428946011     1.1602390357
Bq        -4.6860661224    -1.1978689047     1.1384978452
Bq        -4.6859806563    -1.1528432084     1.1167566547
Bq        -4.6858951902    -1.1078175120     1.0950154642
Bq        -4.6858097240    -1.0627918157     1.0732742736
Bq        -4.6857242579    -1.0177661194     1.0515330831
Bq        -4.6856387917    -0.9727404230     1.0297918926
Bq        -4.6855533256    -0.9277147267     1.0080507021
Bq        -4.6854678595    -0.8826890304     0.9863095116
Bq        -4.6853823933    -0.8376633340     0.9645683211
Bq        -4.6852969272    -0.7926376377     0.9428271305
Bq        -4.6852114611    -0.7476119414     0.9210859400
Bq        -4.6851259949    -0.7025862450     0.8993447495
Bq        -4.6850405288    -0.6575605487     0.8776035590
Bq        -4.6849550626    -0.6125348524     0.8558623685
Bq        -4.6848695965    -0.5675091560     0.8341211780
Bq        -4.6847841304    -0.5224834597     0.8123799874
Bq        -4.6846986642    -0.4774577634     0.7906387969
Bq        -4.6846131981    -0.4324320670     0.7688976064
Bq        -4.6845277320    -0.3874063707     0.7471564159
Bq        -4.6844422658    -0.3423806743     0.7254152254
Bq        -4.6843567997    -0.2973549780     0.7036740349
Bq        -4.6842713335    -0.2523292817     0.6819328443
Bq        -4.6841858674    -0.2073035853     0.6601916538
Bq        -4.6841004013    -0.1622778890     0.6384504633
Bq        -4.6840149351    -0.1172521927     0.6167092728
Bq        -4.6839294690    -0.0722264963     0.5949680823
Bq        -4.6838440029    -0.0272008000     0.5732268918
Bq        -4.6837585367     0.0178248963     0.5514857012
Bq        -4.6836730706     0.0628505927     0.5297445107
Bq        -4.6835876044     0.1078762890     0.5080033202
Bq        -4.6835021383     0.1529019853     0.4862621297
Bq        -4.6834166722     0.1979276817     0.4645209392
Bq        -4.6833312060     0.2429533780     0.4427797487
Bq        -4.6832457399     0.2879790743     0.4210385582
Bq        -4.6831602738     0.3330047707     0.3992973676
Bq        -4.6830748076     0.3780304670     0.3775561771
Bq        -4.6829893415     0.4230561634     0.3558149866
Bq        -4.6829038753     0.4680818597     0.3340737961
Bq        -4.6828184092     0.5131075560     0.3123326056
Bq        -4.6827329431     0.5581332524     0.2905914151
Bq        -4.6826474769     0.6031589487     0.2688502245
Bq        -4.6825620108     0.6481846450     0.2471090340
Bq        -4.6824765447     0.6932103414     0.2253678435
Bq        -4.6823910785     0.7382360377     0.2036266530
Bq        -4.6823056124     0.7832617340     0.1818854625
Bq        -4.6822201462     0.8282874304     0.1601442720
Bq        -4.6821346801     0.8733131267     0.1384030814
Bq        -4.6820492140     0.9183388230     0.1166618909
Bq        -4.6819637478     0.9633645194     0.0949207004
Bq        -4.6818782817     1.0083902157     0.0731795099
Bq        -4.6817928156     1.0534159120     0.0514383194
Bq        -4.6817073494     1.0984416084     0.0296971289
Bq        -4.6816218833     1.1434673047     0.0079559383
Bq        -4.6815364172     1.1884930011    -0.0137852522
Bq        -4.6814509510     1.2335186974    -0.0355264427
Bq        -4.6813654849     1.2785443937    -0.0572676332
Bq        -4.6812800187     1.3235700901    -0.0790088237
Bq        -4.6811945526     1.3685957864    -0.1007500142
Bq        -4.6811090865     1.4136214827    -0.1224912048
Bq        -4.6810236203     1.4586471791    -0.1442323953
Bq        -4.6809381542     1.5036728754    -0.1659735858
Bq        -4.6808526881     1.5486985717    -0.1877147763
Bq        -4.6807672219     1.5937242681    -0.2094559668
Bq        -4.6806817558     1.6387499644    -0.2311971573
Bq        -4.6805962896     1.6837756607    -0.2529383479
Bq        -4.6805108235     1.7288013571    -0.2746795384
Bq        -4.6804253574     1.7738270534    -0.2964207289
Bq        -4.6803398912     1.8188527497    -0.3181619194
Bq        -4.6802544251     1.8638784461    -0.3399031099
Bq        -4.6801689590     1.9089041424    -0.3616443004
Bq        -4.6800834928     1.9539298388    -0.3833854909
Bq        -4.6799980267     1.9989555351    -0.4051266815
Bq        -4.6799125605     2.0439812314    -0.4268678720
Bq        -4.6798270944     2.0890069278    -0.4486090625
Bq        -4.6797416283     2.1340326241    -0.4703502530
Bq        -4.6796561621     2.1790583204    -0.4920914435
Bq        -4.6795706960     2.2240840168    -0.5138326340
Bq        -4.6381176961    -2.2784856168     1.6604829695
Bq        -4.6380322299    -2.2334599204     1.6387417790
Bq        -4.6379467638    -2.1884342241     1.6170005885
Bq        -4.6378612976    -2.1434085278     1.5952593980
Bq        -4.6377758315    -2.0983828314     1.5735182075
Bq        -4.6376903654    -2.0533571351     1.5517770170
Bq        -4.6376048992    -2.0083314388     1.5300358265
Bq        -4.6375194331    -1.9633057424     1.5082946359
Bq        -4.6374339670    -1.9182800461     1.4865534454
Bq        -4.6373485008    -1.8732543497     1.4648122549
Bq        -4.6372630347    -1.8282286534     1.4430710644
Bq        -4.6371775685    -1.7832029571     1.4213298739
Bq        -4.6370921024    -1.7381772607     1.3995886834
Bq        -4.6370066363    -1.6931515644     1.3778474928
Bq        -4.6369211701    -1.6481258681     1.3561063023
Bq        -4.6368357040    -1.6031001717     1.3343651118
Bq        -4.6367502379    -1.5580744754     1.3126239213
Bq        -4.6366647717    -1.5130487791     1.2908827308
Bq        -4.6365793056    -1.4680230827     1.2691415403
Bq        -4.6364938394    -1.4229973864     1.2474003497
Bq        -4.6364083733    -1.3779716901     1.2256591592
Bq        -4.6363229072    -1.3329459937     1.2039179687
Bq        -4.6362374410    -1.2879202974     1.1821767782
Bq        -4.6361519749    -1.2428946011     1.1604355877
Bq        -4.6360665088    -1.1978689047     1.1386943972
Bq        -4.6359810426    -1.1528432084     1.1169532066
Bq        -4.6358955765    -1.1078175120     1.0952120161
Bq        -4.6358101103    -1.0627918157     1.0734708256
Bq        -4.6357246442    -1.0177661194     1.0517296351
Bq        -4.6356391781    -0.9727404230     1.0299884446
Bq        -4.6355537119    -0.9277147267     1.0082472541
Bq        -4.6354682458    -0.8826890304     0.9865060635
Bq        -4.6353827797    -0.8376633340     0.9647648730
Bq        -4.6352973135    -0.7926376377     0.9430236825
Bq        -4.6352118474    -0.7476119414     0.9212824920
Bq        -4.6351263812    -0.7025862450     0.8995413015
Bq        -4.6350409151    -0.6575605487     0.8778001110
Bq        -4.6349554490    -0.6125348524     0.8560589204
Bq        -4.6348699828    -0.5675091560     0.8343177299
Bq        -4.6347845167    -0.5224834597     0.8125765394
Bq        -4.6346990506    -0.4774577634     0.7908353489
Bq        -4.6346135844    -0.4324320670     0.7690941584
Bq        -4.6345281183    -0.3874063707     0.7473529679
Bq        -4.6344426521    -0.3423806743     0.7256117773
Bq        -4.6343571860    -0.2973549780     0.7038705868
Bq        -4.6342717199    -0.2523292817     0.6821293963
Bq        -4.6341862537    -0.2073035853     0.6603882058
Bq        -4.6341007876    -0.1622778890     0.6386470153
Bq        -4.6340153215    -0.1172521927     0.6169058248
Bq        -4.6339298553    -0.0722264963     0.5951646343
Bq        -4.6338443892    -0.0272008000     0.5734234437
Bq        -4.6337589231     0.0178248963     0.5516822532
Bq        -4.6336734569     0.0628505927     0.5299410627
Bq        -4.6335879908     0.1078762890     0.5081998722
Bq        -4.6335025246     0.1529019853     0.4864586817
Bq        -4.6334170585     0.1979276817     0.4647174912
Bq        -4.6333315924     0.2429533780     0.4429763006
Bq        -4.6332461262     0.2879790743     0.4212351101
Bq        -4.6331606601     0.3330047707     0.3994939196
Bq        -4.6330751940     0.3780304670     0.3777527291
Bq        -4.6329897278     0.4230561634     0.3560115386
Bq        -4.6329042617     0.4680818597     0.3342703481
Bq        -4.6328187955     0.5131075560     0.3125291575
Bq        -4.6327333294     0.5581332524     0.2907879670
Bq        -4.6326478633     0.6031589487     0.2690467765
Bq        -4.6325623971     0.6481846450     0.2473055860
Bq        -4.6324769310     0.6932103414     0.2255643955
Bq        -4.6323914649     0.7382360377     0.2038232050
Bq        -4.6323059987     0.7832617340     0.1820820144
Bq        -4.6322205326     0.8282874304     0.1603408239
Bq        -4.6321350664     0.8733131267     0.1385996334
Bq        -4.6320496003     0.9183388230     0.1168584429
Bq        -4.6319641342     0.9633645194     0.0951172524
Bq        -4.6318786680     1.0083902157     0.0733760619
Bq        -4.6317932019     1.0534159120     0.0516348713
Bq        -4.6317077358     1.0984416084     0.0298936808
Bq        -4.6316222696     1.1434673047     0.0081524903
Bq        -4.6315368035     1.1884930011    -0.0135887002
Bq        -4.6314513373     1.2335186974    -0.0353298907
Bq        -4.6313658712     1.2785443937    -0.0570710812
Bq        -4.6312804051     1.3235700901    -0.0788122718
Bq        -4.6311949389     1.3685957864    -0.1005534623
Bq        -4.6311094728     1.4136214827    -0.1222946528
Bq        -4.6310240067     1.4586471791    -0.1440358433
Bq        -4.6309385405     1.5036728754    -0.1657770338
Bq        -4.6308530744     1.5486985717    -0.1875182243

1
2
3
4
5
6
7
8
9
10
11
12
13
14
15
16
17
18
19
20
21
22
23
24
25
26
27
28
29
30
31
32
33
34
35
36
37
38
39
40
41
42
43
44
45
46
47
48
49
50
51
52
53
54
55
56
57
58
59
60
61
62
63
64
65
66
67
68
69
70
71
72
73
74
75
76
77
78
79
80
81
82
83
84
85
86
87
88
89
90
91
92
93
94
95
96
97
98
99
100
101
102
103
104
105
106
107
108
109
110
111
112
113
114
115
116
117
118
119
120
121
122
123
124
125
126
127
128
129
130
131
132
133
134
135
136
137
138
139
140
141
142
143
144
145
146
147
148
149
150
151
152
153
154
155
156
157
158
159
160
161
162
163
164
165
166
167
168
169
170
171
172
173
174
175
176
177
178
179
180
181
182
183
184
185
186
187
188
189
190
191
192
193
194
195
196
197
198
199
200
201
202
203
204
205
206
207
208
209
210
211
212
213
214
215
216
217
218
219
220
221
222
223
224
225
226
227
228
229
230
231
232
233
234
235
236

