%nproc=8
%mem=1000MB
# rb3lyp/6-311+g** NMR geom=connectivity

Title

0 1
C    -4.0500558   -0.5771862    0.8136712
H    -5.0263804   -1.0082727    1.0024760
C    -3.9381552    0.6617804    0.2400876
H    -4.8252424    1.2338890   -0.0111295
C    -2.6768410    1.2433246    0.0057578
C    -1.4974121    0.5051527    0.2848253
C    -1.6508332   -0.7338728    0.9404026
H    -0.7713646   -1.2730967    1.2633753
C    -2.8898548   -1.2624035    1.1994307
H    -2.9683706   -2.2124563    1.7152676
C    -2.5773185    2.5963696   -0.4192930
H    -3.4870728    3.1412239   -0.6474055
C    -1.3741895    3.2147896   -0.4364030
H    -1.2997315    4.2742019   -0.6578144
C    -0.1719488    2.4994090   -0.1734588
C    -0.2043917    1.1018437    0.0192689
C     1.0513491    3.2042560   -0.0676222
H     1.0427344    4.2819499   -0.1896997
C     2.1942091    2.5487446    0.2579577
H     3.1168527    3.0912848    0.4334727
C     2.2216473    1.1336562    0.2934990
C     1.0486931    0.3945528    0.0302412
C     3.4483363    0.4614633    0.5573939
H     4.3095794    1.0606054    0.8334846
C     3.5427346   -0.8855926    0.4749463
H     4.4731467   -1.3939704    0.7038822
C     2.4490052   -1.6474447   -0.0196319
C     1.2150704   -1.0057258   -0.3013573
C     0.2531113   -1.7434440   -1.0216591
H    -0.6541356   -1.2535051   -1.3462847
C     0.4494193   -3.0628597   -1.3413779
H    -0.3083162   -3.5944309   -1.9054060
C     1.6251726   -3.7207967   -0.9552541
H     1.7670048   -4.7687404   -1.1927019
C     2.6109872   -3.0144177   -0.3183050
H     3.5525612   -3.4902813   -0.0646367
Bq        -3.3329997723     0.4230561634     0.3611218898
Bq        -3.3329143062     0.4680818597     0.3393806993
Bq        -3.3328288401     0.5131075560     0.3176395088
Bq        -3.3327433739     0.5581332524     0.2958983183
Bq        -3.3326579078     0.6031589487     0.2741571278
Bq        -3.3325724417     0.6481846450     0.2524159372
Bq        -3.3324869755     0.6932103414     0.2306747467
Bq        -3.3324015094     0.7382360377     0.2089335562
Bq        -3.3323160432     0.7832617340     0.1871923657
Bq        -3.3322305771     0.8282874304     0.1654511752
Bq        -3.3321451110     0.8733131267     0.1437099847
Bq        -3.3320596448     0.9183388230     0.1219687941
Bq        -3.3319741787     0.9633645194     0.1002276036
Bq        -3.3318887126     1.0083902157     0.0784864131
Bq        -3.3318032464     1.0534159120     0.0567452226
Bq        -3.3317177803     1.0984416084     0.0350040321
Bq        -3.3316323142     1.1434673047     0.0132628416
Bq        -3.3315468480     1.1884930011    -0.0084783490
Bq        -3.3314613819     1.2335186974    -0.0302195395
Bq        -3.3313759157     1.2785443937    -0.0519607300
Bq        -3.3312904496     1.3235700901    -0.0737019205
Bq        -3.3312049835     1.3685957864    -0.0954431110
Bq        -3.3311195173     1.4136214827    -0.1171843015
Bq        -3.3310340512     1.4586471791    -0.1389254921
Bq        -3.3309485851     1.5036728754    -0.1606666826
Bq        -3.3308631189     1.5486985717    -0.1824078731
Bq        -3.3307776528     1.5937242681    -0.2041490636
Bq        -3.3306921866     1.6387499644    -0.2258902541
Bq        -3.3306067205     1.6837756607    -0.2476314446
Bq        -3.3305212544     1.7288013571    -0.2693726351
Bq        -3.3304357882     1.7738270534    -0.2911138257
Bq        -3.3303503221     1.8188527497    -0.3128550162
Bq        -3.3302648560     1.8638784461    -0.3345962067
Bq        -3.3301793898     1.9089041424    -0.3563373972
Bq        -3.3300939237     1.9539298388    -0.3780785877
Bq        -3.3300084575     1.9989555351    -0.3998197782
Bq        -3.3299229914     2.0439812314    -0.4215609688
Bq        -3.3298375253     2.0890069278    -0.4433021593
Bq        -3.3297520591     2.1340326241    -0.4650433498
Bq        -3.3296665930     2.1790583204    -0.4867845403
Bq        -3.3295811269     2.2240840168    -0.5085257308
Bq        -3.2881281269    -2.2784856168     1.6657898728
Bq        -3.2880426608    -2.2334599204     1.6440486823
Bq        -3.2879571946    -2.1884342241     1.6223074917
Bq        -3.2878717285    -2.1434085278     1.6005663012
Bq        -3.2877862624    -2.0983828314     1.5788251107
Bq        -3.2877007962    -2.0533571351     1.5570839202
Bq        -3.2876153301    -2.0083314388     1.5353427297
Bq        -3.2875298640    -1.9633057424     1.5136015392
Bq        -3.2874443978    -1.9182800461     1.4918603486
Bq        -3.2873589317    -1.8732543497     1.4701191581
Bq        -3.2872734655    -1.8282286534     1.4483779676
Bq        -3.2871879994    -1.7832029571     1.4266367771
Bq        -3.2871025333    -1.7381772607     1.4048955866
Bq        -3.2870170671    -1.6931515644     1.3831543961
Bq        -3.2869316010    -1.6481258681     1.3614132055
Bq        -3.2868461349    -1.6031001717     1.3396720150
Bq        -3.2867606687    -1.5580744754     1.3179308245
Bq        -3.2866752026    -1.5130487791     1.2961896340
Bq        -3.2865897364    -1.4680230827     1.2744484435
Bq        -3.2865042703    -1.4229973864     1.2527072530
Bq        -3.2864188042    -1.3779716901     1.2309660624
Bq        -3.2863333380    -1.3329459937     1.2092248719
Bq        -3.2862478719    -1.2879202974     1.1874836814
Bq        -3.2861624058    -1.2428946011     1.1657424909
Bq        -3.2860769396    -1.1978689047     1.1440013004
Bq        -3.2859914735    -1.1528432084     1.1222601099
Bq        -3.2859060073    -1.1078175120     1.1005189193
Bq        -3.2858205412    -1.0627918157     1.0787777288
Bq        -3.2857350751    -1.0177661194     1.0570365383
Bq        -3.2856496089    -0.9727404230     1.0352953478
Bq        -3.2855641428    -0.9277147267     1.0135541573
Bq        -3.2854786767    -0.8826890304     0.9918129668
Bq        -3.2853932105    -0.8376633340     0.9700717762
Bq        -3.2853077444    -0.7926376377     0.9483305857
Bq        -3.2852222782    -0.7476119414     0.9265893952
Bq        -3.2851368121    -0.7025862450     0.9048482047
Bq        -3.2850513460    -0.6575605487     0.8831070142
Bq        -3.2849658798    -0.6125348524     0.8613658237
Bq        -3.2848804137    -0.5675091560     0.8396246332
Bq        -3.2847949476    -0.5224834597     0.8178834426
Bq        -3.2847094814    -0.4774577634     0.7961422521
Bq        -3.2846240153    -0.4324320670     0.7744010616
Bq        -3.2845385491    -0.3874063707     0.7526598711
Bq        -3.2844530830    -0.3423806743     0.7309186806
Bq        -3.2843676169    -0.2973549780     0.7091774901
Bq        -3.2842821507    -0.2523292817     0.6874362995
Bq        -3.2841966846    -0.2073035853     0.6656951090
Bq        -3.2841112185    -0.1622778890     0.6439539185
Bq        -3.2840257523    -0.1172521927     0.6222127280
Bq        -3.2839402862    -0.0722264963     0.6004715375
Bq        -3.2838548201    -0.0272008000     0.5787303470
Bq        -3.2837693539     0.0178248963     0.5569891564
Bq        -3.2836838878     0.0628505927     0.5352479659
Bq        -3.2835984216     0.1078762890     0.5135067754
Bq        -3.2835129555     0.1529019853     0.4917655849
Bq        -3.2834274894     0.1979276817     0.4700243944
Bq        -3.2833420232     0.2429533780     0.4482832039
Bq        -3.2832565571     0.2879790743     0.4265420133
Bq        -3.2831710910     0.3330047707     0.4048008228
Bq        -3.2830856248     0.3780304670     0.3830596323
Bq        -3.2830001587     0.4230561634     0.3613184418
Bq        -3.2829146925     0.4680818597     0.3395772513
Bq        -3.2828292264     0.5131075560     0.3178360608
Bq        -3.2827437603     0.5581332524     0.2960948702
Bq        -3.2826582941     0.6031589487     0.2743536797
Bq        -3.2825728280     0.6481846450     0.2526124892
Bq        -3.2824873619     0.6932103414     0.2308712987
Bq        -3.2824018957     0.7382360377     0.2091301082
Bq        -3.2823164296     0.7832617340     0.1873889177
Bq        -3.2822309634     0.8282874304     0.1656477271
Bq        -3.2821454973     0.8733131267     0.1439065366
Bq        -3.2820600312     0.9183388230     0.1221653461
Bq        -3.2819745650     0.9633645194     0.1004241556
Bq        -3.2818890989     1.0083902157     0.0786829651
Bq        -3.2818036328     1.0534159120     0.0569417746
Bq        -3.2817181666     1.0984416084     0.0352005840
Bq        -3.2816327005     1.1434673047     0.0134593935
Bq        -3.2815472343     1.1884930011    -0.0082817970
Bq        -3.2814617682     1.2335186974    -0.0300229875
Bq        -3.2813763021     1.2785443937    -0.0517641780
Bq        -3.2812908359     1.3235700901    -0.0735053685
Bq        -3.2812053698     1.3685957864    -0.0952465590
Bq        -3.2811199037     1.4136214827    -0.1169877496
Bq        -3.2810344375     1.4586471791    -0.1387289401
Bq        -3.2809489714     1.5036728754    -0.1604701306
Bq        -3.2808635052     1.5486985717    -0.1822113211
Bq        -3.2807780391     1.5937242681    -0.2039525116
Bq        -3.2806925730     1.6387499644    -0.2256937021
Bq        -3.2806071068     1.6837756607    -0.2474348927
Bq        -3.2805216407     1.7288013571    -0.2691760832
Bq        -3.2804361746     1.7738270534    -0.2909172737
Bq        -3.2803507084     1.8188527497    -0.3126584642
Bq        -3.2802652423     1.8638784461    -0.3343996547
Bq        -3.2801797761     1.9089041424    -0.3561408452
Bq        -3.2800943100     1.9539298388    -0.3778820358
Bq        -3.2800088439     1.9989555351    -0.3996232263
Bq        -3.2799233777     2.0439812314    -0.4213644168
Bq        -3.2798379116     2.0890069278    -0.4431056073
Bq        -3.2797524455     2.1340326241    -0.4648467978
Bq        -3.2796669793     2.1790583204    -0.4865879883
Bq        -3.2795815132     2.2240840168    -0.5083291789
Bq        -3.2381285132    -2.2784856168     1.6659864247
Bq        -3.2380430471    -2.2334599204     1.6442452342
Bq        -3.2379575810    -2.1884342241     1.6225040437
Bq        -3.2378721148    -2.1434085278     1.6007628532
Bq        -3.2377866487    -2.0983828314     1.5790216627
Bq        -3.2377011826    -2.0533571351     1.5572804722
Bq        -3.2376157164    -2.0083314388     1.5355392816
Bq        -3.2375302503    -1.9633057424     1.5137980911
Bq        -3.2374447841    -1.9182800461     1.4920569006
Bq        -3.2373593180    -1.8732543497     1.4703157101
Bq        -3.2372738519    -1.8282286534     1.4485745196
Bq        -3.2371883857    -1.7832029571     1.4268333291
Bq        -3.2371029196    -1.7381772607     1.4050921385
Bq        -3.2370174535    -1.6931515644     1.3833509480
Bq        -3.2369319873    -1.6481258681     1.3616097575
Bq        -3.2368465212    -1.6031001717     1.3398685670
Bq        -3.2367610550    -1.5580744754     1.3181273765
Bq        -3.2366755889    -1.5130487791     1.2963861860
Bq        -3.2365901228    -1.4680230827     1.2746449954
Bq        -3.2365046566    -1.4229973864     1.2529038049
Bq        -3.2364191905    -1.3779716901     1.2311626144
Bq        -3.2363337244    -1.3329459937     1.2094214239
Bq        -3.2362482582    -1.2879202974     1.1876802334
Bq        -3.2361627921    -1.2428946011     1.1659390429
Bq        -3.2360773260    -1.1978689047     1.1441978523
Bq        -3.2359918598    -1.1528432084     1.1224566618
Bq        -3.2359063937    -1.1078175120     1.1007154713
Bq        -3.2358209275    -1.0627918157     1.0789742808
Bq        -3.2357354614    -1.0177661194     1.0572330903
Bq        -3.2356499953    -0.9727404230     1.0354918998
Bq        -3.2355645291    -0.9277147267     1.0137507093
Bq        -3.2354790630    -0.8826890304     0.9920095187
Bq        -3.2353935969    -0.8376633340     0.9702683282
Bq        -3.2353081307    -0.7926376377     0.9485271377
Bq        -3.2352226646    -0.7476119414     0.9267859472
Bq        -3.2351371984    -0.7025862450     0.9050447567
Bq        -3.2350517323    -0.6575605487     0.8833035662
Bq        -3.2349662662    -0.6125348524     0.8615623756
Bq        -3.2348808000    -0.5675091560     0.8398211851
Bq        -3.2347953339    -0.5224834597     0.8180799946
Bq        -3.2347098678    -0.4774577634     0.7963388041
Bq        -3.2346244016    -0.4324320670     0.7745976136
Bq        -3.2345389355    -0.3874063707     0.7528564231
Bq        -3.2344534693    -0.3423806743     0.7311152325
Bq        -3.2343680032    -0.2973549780     0.7093740420
Bq        -3.2342825371    -0.2523292817     0.6876328515
Bq        -3.2341970709    -0.2073035853     0.6658916610
Bq        -3.2341116048    -0.1622778890     0.6441504705
Bq        -3.2340261387    -0.1172521927     0.6224092800
Bq        -3.2339406725    -0.0722264963     0.6006680894
Bq        -3.2338552064    -0.0272008000     0.5789268989
Bq        -3.2337697402     0.0178248963     0.5571857084
Bq        -3.2336842741     0.0628505927     0.5354445179
Bq        -3.2335988080     0.1078762890     0.5137033274
Bq        -3.2335133418     0.1529019853     0.4919621369
Bq        -3.2334278757     0.1979276817     0.4702209463
Bq        -3.2333424096     0.2429533780     0.4484797558
Bq        -3.2332569434     0.2879790743     0.4267385653

1
2
3
4
5
6
7
8
9
10
11
12
13
14
15
16
17
18
19
20
21
22
23
24
25
26
27
28
29
30
31
32
33
34
35
36
37
38
39
40
41
42
43
44
45
46
47
48
49
50
51
52
53
54
55
56
57
58
59
60
61
62
63
64
65
66
67
68
69
70
71
72
73
74
75
76
77
78
79
80
81
82
83
84
85
86
87
88
89
90
91
92
93
94
95
96
97
98
99
100
101
102
103
104
105
106
107
108
109
110
111
112
113
114
115
116
117
118
119
120
121
122
123
124
125
126
127
128
129
130
131
132
133
134
135
136
137
138
139
140
141
142
143
144
145
146
147
148
149
150
151
152
153
154
155
156
157
158
159
160
161
162
163
164
165
166
167
168
169
170
171
172
173
174
175
176
177
178
179
180
181
182
183
184
185
186
187
188
189
190
191
192
193
194
195
196
197
198
199
200
201
202
203
204
205
206
207
208
209
210
211
212
213
214
215
216
217
218
219
220
221
222
223
224
225
226
227
228
229
230
231
232
233
234
235
236

