%nproc=8
%mem=1000MB
# rb3lyp/6-311+g** NMR geom=connectivity

Title

0 1
C    -4.0500558   -0.5771862    0.8136712
H    -5.0263804   -1.0082727    1.0024760
C    -3.9381552    0.6617804    0.2400876
H    -4.8252424    1.2338890   -0.0111295
C    -2.6768410    1.2433246    0.0057578
C    -1.4974121    0.5051527    0.2848253
C    -1.6508332   -0.7338728    0.9404026
H    -0.7713646   -1.2730967    1.2633753
C    -2.8898548   -1.2624035    1.1994307
H    -2.9683706   -2.2124563    1.7152676
C    -2.5773185    2.5963696   -0.4192930
H    -3.4870728    3.1412239   -0.6474055
C    -1.3741895    3.2147896   -0.4364030
H    -1.2997315    4.2742019   -0.6578144
C    -0.1719488    2.4994090   -0.1734588
C    -0.2043917    1.1018437    0.0192689
C     1.0513491    3.2042560   -0.0676222
H     1.0427344    4.2819499   -0.1896997
C     2.1942091    2.5487446    0.2579577
H     3.1168527    3.0912848    0.4334727
C     2.2216473    1.1336562    0.2934990
C     1.0486931    0.3945528    0.0302412
C     3.4483363    0.4614633    0.5573939
H     4.3095794    1.0606054    0.8334846
C     3.5427346   -0.8855926    0.4749463
H     4.4731467   -1.3939704    0.7038822
C     2.4490052   -1.6474447   -0.0196319
C     1.2150704   -1.0057258   -0.3013573
C     0.2531113   -1.7434440   -1.0216591
H    -0.6541356   -1.2535051   -1.3462847
C     0.4494193   -3.0628597   -1.3413779
H    -0.3083162   -3.5944309   -1.9054060
C     1.6251726   -3.7207967   -0.9552541
H     1.7670048   -4.7687404   -1.1927019
C     2.6109872   -3.0144177   -0.3183050
H     3.5525612   -3.4902813   -0.0646367
Bq        -0.9908521772     3.8113280242    -0.3343670364
Bq        -0.9904961102     3.8612676319    -0.3367978388
Bq        -0.9901400433     3.9112072396    -0.3392286412
Bq        -0.9897839763     3.9611468473    -0.3416594435
Bq        -0.9894279093     4.0110864550    -0.3440902459
Bq        -0.9890718423     4.0610260627    -0.3465210483
Bq        -0.9887157754     4.1109656703    -0.3489518507
Bq        -0.9883597084     4.1609052780    -0.3513826531
Bq        -0.9880036414     4.2108448857    -0.3538134555
Bq        -0.9876475745     4.2607844934    -0.3562442578
Bq        -0.9872915075     4.3107241011    -0.3586750602
Bq        -0.9734261426    -0.6832366678    -0.1083480925
Bq        -0.9730700757    -0.6332970601    -0.1107788948
Bq        -0.9727140087    -0.5833574524    -0.1132096972
Bq        -0.9723579417    -0.5334178447    -0.1156404996
Bq        -0.9720018748    -0.4834782370    -0.1180713020
Bq        -0.9716458078    -0.4335386293    -0.1205021044
Bq        -0.9712897408    -0.3835990216    -0.1229329068
Bq        -0.9709336738    -0.3336594139    -0.1253637091
Bq        -0.9705776069    -0.2837198063    -0.1277945115
Bq        -0.9702215399    -0.2337801986    -0.1302253139
Bq        -0.9698654729    -0.1838405909    -0.1326561163
Bq        -0.9695094060    -0.1339009832    -0.1350869187
Bq        -0.9691533390    -0.0839613755    -0.1375177210
Bq        -0.9687972720    -0.0340217678    -0.1399485234
Bq        -0.9684412050     0.0159178399    -0.1423793258
Bq        -0.9680851381     0.0658574476    -0.1448101282
Bq        -0.9677290711     0.1157970553    -0.1472409306
Bq        -0.9673730041     0.1657366629    -0.1496717330
Bq        -0.9670169372     0.2156762706    -0.1521025353
Bq        -0.9666608702     0.2656158783    -0.1545333377
Bq        -0.9663048032     0.3155554860    -0.1569641401
Bq        -0.9659487363     0.3654950937    -0.1593949425
Bq        -0.9655926693     0.4154347014    -0.1618257449
Bq        -0.9652366023     0.4653743091    -0.1642565473
Bq        -0.9648805353     0.5153139168    -0.1666873496
Bq        -0.9645244684     0.5652535245    -0.1691181520
Bq        -0.9641684014     0.6151931321    -0.1715489544
Bq        -0.9638123344     0.6651327398    -0.1739797568
Bq        -0.9634562675     0.7150723475    -0.1764105592
Bq        -0.9631002005     0.7650119552    -0.1788413616
Bq        -0.9627441335     0.8149515629    -0.1812721639
Bq        -0.9623880665     0.8648911706    -0.1837029663
Bq        -0.9620319996     0.9148307783    -0.1861337687
Bq        -0.9616759326     0.9647703860    -0.1885645711
Bq        -0.9613198656     1.0147099936    -0.1909953735
Bq        -0.9609637987     1.0646496013    -0.1934261759
Bq        -0.9606077317     1.1145892090    -0.1958569782
Bq        -0.9602516647     1.1645288167    -0.1982877806
Bq        -0.9598955977     1.2144684244    -0.2007185830
Bq        -0.9595395308     1.2644080321    -0.2031493854
Bq        -0.9591834638     1.3143476398    -0.2055801878
Bq        -0.9588273968     1.3642872475    -0.2080109902
Bq        -0.9584713299     1.4142268552    -0.2104417925
Bq        -0.9581152629     1.4641664628    -0.2128725949
Bq        -0.9577591959     1.5141060705    -0.2153033973
Bq        -0.9574031290     1.5640456782    -0.2177341997
Bq        -0.9570470620     1.6139852859    -0.2201650021
Bq        -0.9566909950     1.6639248936    -0.2225958045
Bq        -0.9563349280     1.7138645013    -0.2250266068
Bq        -0.9559788611     1.7638041090    -0.2274574092
Bq        -0.9556227941     1.8137437167    -0.2298882116
Bq        -0.9552667271     1.8636833244    -0.2323190140
Bq        -0.9549106602     1.9136229320    -0.2347498164
Bq        -0.9545545932     1.9635625397    -0.2371806188
Bq        -0.9541985262     2.0135021474    -0.2396114211
Bq        -0.9538424592     2.0634417551    -0.2420422235
Bq        -0.9534863923     2.1133813628    -0.2444730259
Bq        -0.9531303253     2.1633209705    -0.2469038283
Bq        -0.9527742583     2.2132605782    -0.2493346307
Bq        -0.9524181914     2.2632001859    -0.2517654331
Bq        -0.9520621244     2.3131397936    -0.2541962354
Bq        -0.9517060574     2.3630794012    -0.2566270378
Bq        -0.9513499904     2.4130190089    -0.2590578402
Bq        -0.9509939235     2.4629586166    -0.2614886426
Bq        -0.9506378565     2.5128982243    -0.2639194450
Bq        -0.9502817895     2.5628378320    -0.2663502474
Bq        -0.9499257226     2.6127774397    -0.2687810497
Bq        -0.9495696556     2.6627170474    -0.2712118521
Bq        -0.9492135886     2.7126566551    -0.2736426545
Bq        -0.9488575217     2.7625962627    -0.2760734569
Bq        -0.9485014547     2.8125358704    -0.2785042593
Bq        -0.9481453877     2.8624754781    -0.2809350617
Bq        -0.9477893207     2.9124150858    -0.2833658640
Bq        -0.9474332538     2.9623546935    -0.2857966664
Bq        -0.9470771868     3.0122943012    -0.2882274688
Bq        -0.9467211198     3.0622339089    -0.2906582712
Bq        -0.9463650529     3.1121735166    -0.2930890736
Bq        -0.9460089859     3.1621131243    -0.2955198760
Bq        -0.9456529189     3.2120527319    -0.2979506783
Bq        -0.9452968519     3.2619923396    -0.3003814807
Bq        -0.9449407850     3.3119319473    -0.3028122831
Bq        -0.9445847180     3.3618715550    -0.3052430855
Bq        -0.9442286510     3.4118111627    -0.3076738879
Bq        -0.9438725841     3.4617507704    -0.3101046903
Bq        -0.9435165171     3.5116903781    -0.3125354926
Bq        -0.9431604501     3.5616299858    -0.3149662950
Bq        -0.9428043831     3.6115695935    -0.3173970974
Bq        -0.9424483162     3.6615092011    -0.3198278998
Bq        -0.9420922492     3.7114488088    -0.3222587022
Bq        -0.9417361822     3.7613884165    -0.3246895046
Bq        -0.9413801153     3.8113280242    -0.3271203069
Bq        -0.9410240483     3.8612676319    -0.3295511093
Bq        -0.9406679813     3.9112072396    -0.3319819117
Bq        -0.9403119144     3.9611468473    -0.3344127141
Bq        -0.9399558474     4.0110864550    -0.3368435165
Bq        -0.9395997804     4.0610260627    -0.3392743189
Bq        -0.9392437134     4.1109656703    -0.3417051212
Bq        -0.9388876465     4.1609052780    -0.3441359236
Bq        -0.9385315795     4.2108448857    -0.3465667260
Bq        -0.9381755125     4.2607844934    -0.3489975284
Bq        -0.9378194456     4.3107241011    -0.3514283308
Bq        -0.9239540807    -0.6832366678    -0.1011013630
Bq        -0.9235980137    -0.6332970601    -0.1035321654
Bq        -0.9232419468    -0.5833574524    -0.1059629678
Bq        -0.9228858798    -0.5334178447    -0.1083937701
Bq        -0.9225298128    -0.4834782370    -0.1108245725
Bq        -0.9221737458    -0.4335386293    -0.1132553749
Bq        -0.9218176789    -0.3835990216    -0.1156861773
Bq        -0.9214616119    -0.3336594139    -0.1181169797
Bq        -0.9211055449    -0.2837198063    -0.1205477821
Bq        -0.9207494780    -0.2337801986    -0.1229785844
Bq        -0.9203934110    -0.1838405909    -0.1254093868
Bq        -0.9200373440    -0.1339009832    -0.1278401892
Bq        -0.9196812771    -0.0839613755    -0.1302709916
Bq        -0.9193252101    -0.0340217678    -0.1327017940
Bq        -0.9189691431     0.0159178399    -0.1351325964
Bq        -0.9186130761     0.0658574476    -0.1375633987
Bq        -0.9182570092     0.1157970553    -0.1399942011
Bq        -0.9179009422     0.1657366629    -0.1424250035
Bq        -0.9175448752     0.2156762706    -0.1448558059
Bq        -0.9171888083     0.2656158783    -0.1472866083
Bq        -0.9168327413     0.3155554860    -0.1497174107
Bq        -0.9164766743     0.3654950937    -0.1521482130
Bq        -0.9161206073     0.4154347014    -0.1545790154
Bq        -0.9157645404     0.4653743091    -0.1570098178
Bq        -0.9154084734     0.5153139168    -0.1594406202
Bq        -0.9150524064     0.5652535245    -0.1618714226
Bq        -0.9146963395     0.6151931321    -0.1643022250
Bq        -0.9143402725     0.6651327398    -0.1667330273
Bq        -0.9139842055     0.7150723475    -0.1691638297
Bq        -0.9136281385     0.7650119552    -0.1715946321
Bq        -0.9132720716     0.8149515629    -0.1740254345
Bq        -0.9129160046     0.8648911706    -0.1764562369
Bq        -0.9125599376     0.9148307783    -0.1788870393
Bq        -0.9122038707     0.9647703860    -0.1813178416
Bq        -0.9118478037     1.0147099936    -0.1837486440
Bq        -0.9114917367     1.0646496013    -0.1861794464
Bq        -0.9111356698     1.1145892090    -0.1886102488
Bq        -0.9107796028     1.1645288167    -0.1910410512
Bq        -0.9104235358     1.2144684244    -0.1934718536
Bq        -0.9100674688     1.2644080321    -0.1959026559
Bq        -0.9097114019     1.3143476398    -0.1983334583
Bq        -0.9093553349     1.3642872475    -0.2007642607
Bq        -0.9089992679     1.4142268552    -0.2031950631
Bq        -0.9086432010     1.4641664628    -0.2056258655
Bq        -0.9082871340     1.5141060705    -0.2080566679
Bq        -0.9079310670     1.5640456782    -0.2104874702
Bq        -0.9075750000     1.6139852859    -0.2129182726
Bq        -0.9072189331     1.6639248936    -0.2153490750
Bq        -0.9068628661     1.7138645013    -0.2177798774
Bq        -0.9065067991     1.7638041090    -0.2202106798
Bq        -0.9061507322     1.8137437167    -0.2226414822
Bq        -0.9057946652     1.8636833244    -0.2250722845
Bq        -0.9054385982     1.9136229320    -0.2275030869
Bq        -0.9050825312     1.9635625397    -0.2299338893
Bq        -0.9047264643     2.0135021474    -0.2323646917
Bq        -0.9043703973     2.0634417551    -0.2347954941
Bq        -0.9040143303     2.1133813628    -0.2372262965
Bq        -0.9036582634     2.1633209705    -0.2396570988
Bq        -0.9033021964     2.2132605782    -0.2420879012
Bq        -0.9029461294     2.2632001859    -0.2445187036
Bq        -0.9025900625     2.3131397936    -0.2469495060
Bq        -0.9022339955     2.3630794012    -0.2493803084
Bq        -0.9018779285     2.4130190089    -0.2518111108
Bq        -0.9015218615     2.4629586166    -0.2542419131
Bq        -0.9011657946     2.5128982243    -0.2566727155
Bq        -0.9008097276     2.5628378320    -0.2591035179
Bq        -0.9004536606     2.6127774397    -0.2615343203
Bq        -0.9000975937     2.6627170474    -0.2639651227
Bq        -0.8997415267     2.7126566551    -0.2663959251
Bq        -0.8993854597     2.7625962627    -0.2688267274
Bq        -0.8990293927     2.8125358704    -0.2712575298
Bq        -0.8986733258     2.8624754781    -0.2736883322
Bq        -0.8983172588     2.9124150858    -0.2761191346
Bq        -0.8979611918     2.9623546935    -0.2785499370
Bq        -0.8976051249     3.0122943012    -0.2809807394
Bq        -0.8972490579     3.0622339089    -0.2834115417
Bq        -0.8968929909     3.1121735166    -0.2858423441
Bq        -0.8965369239     3.1621131243    -0.2882731465
Bq        -0.8961808570     3.2120527319    -0.2907039489
Bq        -0.8958247900     3.2619923396    -0.2931347513
Bq        -0.8954687230     3.3119319473    -0.2955655537
Bq        -0.8951126561     3.3618715550    -0.2979963560
Bq        -0.8947565891     3.4118111627    -0.3004271584
Bq        -0.8944005221     3.4617507704    -0.3028579608
Bq        -0.8940444552     3.5116903781    -0.3052887632
Bq        -0.8936883882     3.5616299858    -0.3077195656
Bq        -0.8933323212     3.6115695935    -0.3101503680
Bq        -0.8929762542     3.6615092011    -0.3125811703

1
2
3
4
5
6
7
8
9
10
11
12
13
14
15
16
17
18
19
20
21
22
23
24
25
26
27
28
29
30
31
32
33
34
35
36
37
38
39
40
41
42
43
44
45
46
47
48
49
50
51
52
53
54
55
56
57
58
59
60
61
62
63
64
65
66
67
68
69
70
71
72
73
74
75
76
77
78
79
80
81
82
83
84
85
86
87
88
89
90
91
92
93
94
95
96
97
98
99
100
101
102
103
104
105
106
107
108
109
110
111
112
113
114
115
116
117
118
119
120
121
122
123
124
125
126
127
128
129
130
131
132
133
134
135
136
137
138
139
140
141
142
143
144
145
146
147
148
149
150
151
152
153
154
155
156
157
158
159
160
161
162
163
164
165
166
167
168
169
170
171
172
173
174
175
176
177
178
179
180
181
182
183
184
185
186
187
188
189
190
191
192
193
194
195
196
197
198
199
200
201
202
203
204
205
206
207
208
209
210
211
212
213
214
215
216
217
218
219
220
221
222
223
224
225
226
227
228
229
230
231
232
233
234
235
236

