%nproc=8
%mem=1000MB
# rb3lyp/6-311+g** NMR geom=connectivity

Title

0 1
C    -4.0500558   -0.5771862    0.8136712
H    -5.0263804   -1.0082727    1.0024760
C    -3.9381552    0.6617804    0.2400876
H    -4.8252424    1.2338890   -0.0111295
C    -2.6768410    1.2433246    0.0057578
C    -1.4974121    0.5051527    0.2848253
C    -1.6508332   -0.7338728    0.9404026
H    -0.7713646   -1.2730967    1.2633753
C    -2.8898548   -1.2624035    1.1994307
H    -2.9683706   -2.2124563    1.7152676
C    -2.5773185    2.5963696   -0.4192930
H    -3.4870728    3.1412239   -0.6474055
C    -1.3741895    3.2147896   -0.4364030
H    -1.2997315    4.2742019   -0.6578144
C    -0.1719488    2.4994090   -0.1734588
C    -0.2043917    1.1018437    0.0192689
C     1.0513491    3.2042560   -0.0676222
H     1.0427344    4.2819499   -0.1896997
C     2.1942091    2.5487446    0.2579577
H     3.1168527    3.0912848    0.4334727
C     2.2216473    1.1336562    0.2934990
C     1.0486931    0.3945528    0.0302412
C     3.4483363    0.4614633    0.5573939
H     4.3095794    1.0606054    0.8334846
C     3.5427346   -0.8855926    0.4749463
H     4.4731467   -1.3939704    0.7038822
C     2.4490052   -1.6474447   -0.0196319
C     1.2150704   -1.0057258   -0.3013573
C     0.2531113   -1.7434440   -1.0216591
H    -0.6541356   -1.2535051   -1.3462847
C     0.4494193   -3.0628597   -1.3413779
H    -0.3083162   -3.5944309   -1.9054060
C     1.6251726   -3.7207967   -0.9552541
H     1.7670048   -4.7687404   -1.1927019
C     2.6109872   -3.0144177   -0.3183050
H     3.5525612   -3.4902813   -0.0646367
Bq         1.4903252434    -2.4621744160    -0.6631541066
Bq         1.4848220067    -2.4139779247    -0.6510374814
Bq         1.4793187700    -2.3657814333    -0.6389208562
Bq         1.4738155333    -2.3175849420    -0.6268042310
Bq         1.4683122966    -2.2693884506    -0.6146876057
Bq         1.4628090599    -2.2211919593    -0.6025709805
Bq         1.4573058232    -2.1729954679    -0.5904543553
Bq         1.4518025866    -2.1247989766    -0.5783377300
Bq         1.4462993499    -2.0766024852    -0.5662211048
Bq         1.4407961132    -2.0284059938    -0.5541044796
Bq         1.4352928765    -1.9802095025    -0.5419878544
Bq         1.4297896398    -1.9320130111    -0.5298712291
Bq         1.4242864031    -1.8838165198    -0.5177546039
Bq         1.4187831664    -1.8356200284    -0.5056379787
Bq         1.4132799298    -1.7874235371    -0.4935213534
Bq         1.4077766931    -1.7392270457    -0.4814047282
Bq         1.4022734564    -1.6910305543    -0.4692881030
Bq         1.3967702197    -1.6428340630    -0.4571714778
Bq         1.3912669830    -1.5946375716    -0.4450548525
Bq         1.3857637463    -1.5464410803    -0.4329382273
Bq         1.3802605096    -1.4982445889    -0.4208216021
Bq         1.3747572730    -1.4500480976    -0.4087049768
Bq         1.3692540363    -1.4018516062    -0.3965883516
Bq         1.3637507996    -1.3536551149    -0.3844717264
Bq         1.3582475629    -1.3054586235    -0.3723551011
Bq         1.3527443262    -1.2572621321    -0.3602384759
Bq         1.3472410895    -1.2090656408    -0.3481218507
Bq         1.3417378528    -1.1608691494    -0.3360052255
Bq         1.3362346162    -1.1126726581    -0.3238886002
Bq         1.3307313795    -1.0644761667    -0.3117719750
Bq         1.3252281428    -1.0162796754    -0.2996553498
Bq         1.3197249061    -0.9680831840    -0.2875387245
Bq         1.3142216694    -0.9198866927    -0.2754220993
Bq         1.3087184327    -0.8716902013    -0.2633054741
Bq         1.3032151960    -0.8234937099    -0.2511888489
Bq         1.2977119594    -0.7752972186    -0.2390722236
Bq         1.2922087227    -0.7271007272    -0.2269555984
Bq         1.2867054860    -0.6789042359    -0.2148389732
Bq         1.2812022493    -0.6307077445    -0.2027223479
Bq         1.2756990126    -0.5825112532    -0.1906057227
Bq         1.2701957759    -0.5343147618    -0.1784890975
Bq         1.2646925392    -0.4861182704    -0.1663724723
Bq         1.2591893025    -0.4379217791    -0.1542558470
Bq         1.2536860659    -0.3897252877    -0.1421392218
Bq         1.2481828292    -0.3415287964    -0.1300225966
Bq         1.2426795925    -0.2933323050    -0.1179059713
Bq         1.2371763558    -0.2451358137    -0.1057893461
Bq         1.2316731191    -0.1969393223    -0.0936727209
Bq         1.2261698824    -0.1487428310    -0.0815560957
Bq         1.2206666457    -0.1005463396    -0.0694394704
Bq         1.2151634091    -0.0523498482    -0.0573228452
Bq         1.2096601724    -0.0041533569    -0.0452062200
Bq         1.2041569357     0.0440431345    -0.0330895947
Bq         1.8000050409    -4.7756060011    -1.2240754238
Bq         1.7945018043    -4.7274095098    -1.2119587986
Bq         1.7889985676    -4.6792130184    -1.1998421734
Bq         1.7834953309    -4.6310165271    -1.1877255481
Bq         1.7779920942    -4.5828200357    -1.1756089229
Bq         1.7724888575    -4.5346235444    -1.1634922977
Bq         1.7669856208    -4.4864270530    -1.1513756724
Bq         1.7614823841    -4.4382305616    -1.1392590472
Bq         1.7559791475    -4.3900340703    -1.1271424220
Bq         1.7504759108    -4.3418375789    -1.1150257968
Bq         1.7449726741    -4.2936410876    -1.1029091715
Bq         1.7394694374    -4.2454445962    -1.0907925463
Bq         1.7339662007    -4.1972481049    -1.0786759211
Bq         1.7284629640    -4.1490516135    -1.0665592958
Bq         1.7229597273    -4.1008551222    -1.0544426706
Bq         1.7174564907    -4.0526586308    -1.0423260454
Bq         1.7119532540    -4.0044621394    -1.0302094202
Bq         1.7064500173    -3.9562656481    -1.0180927949
Bq         1.7009467806    -3.9080691567    -1.0059761697
Bq         1.6954435439    -3.8598726654    -0.9938595445
Bq         1.6899403072    -3.8116761740    -0.9817429192
Bq         1.6844370705    -3.7634796827    -0.9696262940
Bq         1.6789338339    -3.7152831913    -0.9575096688
Bq         1.6734305972    -3.6670866999    -0.9453930436
Bq         1.6679273605    -3.6188902086    -0.9332764183
Bq         1.6624241238    -3.5706937172    -0.9211597931
Bq         1.6569208871    -3.5224972259    -0.9090431679
Bq         1.6514176504    -3.4743007345    -0.8969265426
Bq         1.6459144137    -3.4261042432    -0.8848099174
Bq         1.6404111771    -3.3779077518    -0.8726932922
Bq         1.6349079404    -3.3297112605    -0.8605766670
Bq         1.6294047037    -3.2815147691    -0.8484600417
Bq         1.6239014670    -3.2333182777    -0.8363434165
Bq         1.6183982303    -3.1851217864    -0.8242267913
Bq         1.6128949936    -3.1369252950    -0.8121101660
Bq         1.6073917569    -3.0887288037    -0.7999935408
Bq         1.6018885203    -3.0405323123    -0.7878769156
Bq         1.5963852836    -2.9923358210    -0.7757602903
Bq         1.5908820469    -2.9441393296    -0.7636436651
Bq         1.5853788102    -2.8959428383    -0.7515270399
Bq         1.5798755735    -2.8477463469    -0.7394104147
Bq         1.5743723368    -2.7995498555    -0.7272937894
Bq         1.5688691001    -2.7513533642    -0.7151771642
Bq         1.5633658634    -2.7031568728    -0.7030605390
Bq         1.5578626268    -2.6549603815    -0.6909439137
Bq         1.5523593901    -2.6067638901    -0.6788272885
Bq         1.5468561534    -2.5585673988    -0.6667106633
Bq         1.5413529167    -2.5103709074    -0.6545940381
Bq         1.5358496800    -2.4621744160    -0.6424774128
Bq         1.5303464433    -2.4139779247    -0.6303607876
Bq         1.5248432066    -2.3657814333    -0.6182441624
Bq         1.5193399700    -2.3175849420    -0.6061275371
Bq         1.5138367333    -2.2693884506    -0.5940109119
Bq         1.5083334966    -2.2211919593    -0.5818942867
Bq         1.5028302599    -2.1729954679    -0.5697776615
Bq         1.4973270232    -2.1247989766    -0.5576610362
Bq         1.4918237865    -2.0766024852    -0.5455444110
Bq         1.4863205498    -2.0284059938    -0.5334277858
Bq         1.4808173132    -1.9802095025    -0.5213111605
Bq         1.4753140765    -1.9320130111    -0.5091945353
Bq         1.4698108398    -1.8838165198    -0.4970779101
Bq         1.4643076031    -1.8356200284    -0.4849612849
Bq         1.4588043664    -1.7874235371    -0.4728446596
Bq         1.4533011297    -1.7392270457    -0.4607280344
Bq         1.4477978930    -1.6910305543    -0.4486114092
Bq         1.4422946564    -1.6428340630    -0.4364947839
Bq         1.4367914197    -1.5946375716    -0.4243781587
Bq         1.4312881830    -1.5464410803    -0.4122615335
Bq         1.4257849463    -1.4982445889    -0.4001449082
Bq         1.4202817096    -1.4500480976    -0.3880282830
Bq         1.4147784729    -1.4018516062    -0.3759116578
Bq         1.4092752362    -1.3536551149    -0.3637950326
Bq         1.4037719996    -1.3054586235    -0.3516784073
Bq         1.3982687629    -1.2572621321    -0.3395617821
Bq         1.3927655262    -1.2090656408    -0.3274451569
Bq         1.3872622895    -1.1608691494    -0.3153285316
Bq         1.3817590528    -1.1126726581    -0.3032119064
Bq         1.3762558161    -1.0644761667    -0.2910952812
Bq         1.3707525794    -1.0162796754    -0.2789786560
Bq         1.3652493428    -0.9680831840    -0.2668620307
Bq         1.3597461061    -0.9198866927    -0.2547454055
Bq         1.3542428694    -0.8716902013    -0.2426287803
Bq         1.3487396327    -0.8234937099    -0.2305121550
Bq         1.3432363960    -0.7752972186    -0.2183955298
Bq         1.3377331593    -0.7271007272    -0.2062789046
Bq         1.3322299226    -0.6789042359    -0.1941622794
Bq         1.3267266859    -0.6307077445    -0.1820456541
Bq         1.3212234493    -0.5825112532    -0.1699290289
Bq         1.3157202126    -0.5343147618    -0.1578124037
Bq         1.3102169759    -0.4861182704    -0.1456957784
Bq         1.3047137392    -0.4379217791    -0.1335791532
Bq         1.2992105025    -0.3897252877    -0.1214625280
Bq         1.2937072658    -0.3415287964    -0.1093459028
Bq         1.2882040291    -0.2933323050    -0.0972292775
Bq         1.2827007925    -0.2451358137    -0.0851126523
Bq         1.2771975558    -0.1969393223    -0.0729960271
Bq         1.2716943191    -0.1487428310    -0.0608794018
Bq         1.2661910824    -0.1005463396    -0.0487627766
Bq         1.2606878457    -0.0523498482    -0.0366461514
Bq         1.2551846090    -0.0041533569    -0.0245295262
Bq         1.2496813723     0.0440431345    -0.0124129009
Bq         1.8455294776    -4.7756060011    -1.2033987300
Bq         1.8400262409    -4.7274095098    -1.1912821048
Bq         1.8345230042    -4.6792130184    -1.1791654795
Bq         1.8290197675    -4.6310165271    -1.1670488543
Bq         1.8235165309    -4.5828200357    -1.1549322291
Bq         1.8180132942    -4.5346235444    -1.1428156039
Bq         1.8125100575    -4.4864270530    -1.1306989786
Bq         1.8070068208    -4.4382305616    -1.1185823534
Bq         1.8015035841    -4.3900340703    -1.1064657282
Bq         1.7960003474    -4.3418375789    -1.0943491029
Bq         1.7904971107    -4.2936410876    -1.0822324777
Bq         1.7849938741    -4.2454445962    -1.0701158525
Bq         1.7794906374    -4.1972481049    -1.0579992273
Bq         1.7739874007    -4.1490516135    -1.0458826020
Bq         1.7684841640    -4.1008551222    -1.0337659768
Bq         1.7629809273    -4.0526586308    -1.0216493516
Bq         1.7574776906    -4.0044621394    -1.0095327263
Bq         1.7519744539    -3.9562656481    -0.9974161011
Bq         1.7464712173    -3.9080691567    -0.9852994759
Bq         1.7409679806    -3.8598726654    -0.9731828507
Bq         1.7354647439    -3.8116761740    -0.9610662254
Bq         1.7299615072    -3.7634796827    -0.9489496002
Bq         1.7244582705    -3.7152831913    -0.9368329750
Bq         1.7189550338    -3.6670866999    -0.9247163497
Bq         1.7134517971    -3.6188902086    -0.9125997245
Bq         1.7079485605    -3.5706937172    -0.9004830993
Bq         1.7024453238    -3.5224972259    -0.8883664741
Bq         1.6969420871    -3.4743007345    -0.8762498488
Bq         1.6914388504    -3.4261042432    -0.8641332236
Bq         1.6859356137    -3.3779077518    -0.8520165984
Bq         1.6804323770    -3.3297112605    -0.8398999731
Bq         1.6749291403    -3.2815147691    -0.8277833479
Bq         1.6694259037    -3.2333182777    -0.8156667227
Bq         1.6639226670    -3.1851217864    -0.8035500975
Bq         1.6584194303    -3.1369252950    -0.7914334722
Bq         1.6529161936    -3.0887288037    -0.7793168470
Bq         1.6474129569    -3.0405323123    -0.7672002218
Bq         1.6419097202    -2.9923358210    -0.7550835965
Bq         1.6364064835    -2.9441393296    -0.7429669713
Bq         1.6309032469    -2.8959428383    -0.7308503461
Bq         1.6254000102    -2.8477463469    -0.7187337208
Bq         1.6198967735    -2.7995498555    -0.7066170956
Bq         1.6143935368    -2.7513533642    -0.6945004704
Bq         1.6088903001    -2.7031568728    -0.6823838452
Bq         1.6033870634    -2.6549603815    -0.6702672199
Bq         1.5978838267    -2.6067638901    -0.6581505947

1
2
3
4
5
6
7
8
9
10
11
12
13
14
15
16
17
18
19
20
21
22
23
24
25
26
27
28
29
30
31
32
33
34
35
36
37
38
39
40
41
42
43
44
45
46
47
48
49
50
51
52
53
54
55
56
57
58
59
60
61
62
63
64
65
66
67
68
69
70
71
72
73
74
75
76
77
78
79
80
81
82
83
84
85
86
87
88
89
90
91
92
93
94
95
96
97
98
99
100
101
102
103
104
105
106
107
108
109
110
111
112
113
114
115
116
117
118
119
120
121
122
123
124
125
126
127
128
129
130
131
132
133
134
135
136
137
138
139
140
141
142
143
144
145
146
147
148
149
150
151
152
153
154
155
156
157
158
159
160
161
162
163
164
165
166
167
168
169
170
171
172
173
174
175
176
177
178
179
180
181
182
183
184
185
186
187
188
189
190
191
192
193
194
195
196
197
198
199
200
201
202
203
204
205
206
207
208
209
210
211
212
213
214
215
216
217
218
219
220
221
222
223
224
225
226
227
228
229
230
231
232
233
234
235
236

