%nproc=8
%mem=1000MB
# rb3lyp/6-311+g** NMR geom=connectivity

Title

0 1
C    -4.0500558   -0.5771862    0.8136712
H    -5.0263804   -1.0082727    1.0024760
C    -3.9381552    0.6617804    0.2400876
H    -4.8252424    1.2338890   -0.0111295
C    -2.6768410    1.2433246    0.0057578
C    -1.4974121    0.5051527    0.2848253
C    -1.6508332   -0.7338728    0.9404026
H    -0.7713646   -1.2730967    1.2633753
C    -2.8898548   -1.2624035    1.1994307
H    -2.9683706   -2.2124563    1.7152676
C    -2.5773185    2.5963696   -0.4192930
H    -3.4870728    3.1412239   -0.6474055
C    -1.3741895    3.2147896   -0.4364030
H    -1.2997315    4.2742019   -0.6578144
C    -0.1719488    2.4994090   -0.1734588
C    -0.2043917    1.1018437    0.0192689
C     1.0513491    3.2042560   -0.0676222
H     1.0427344    4.2819499   -0.1896997
C     2.1942091    2.5487446    0.2579577
H     3.1168527    3.0912848    0.4334727
C     2.2216473    1.1336562    0.2934990
C     1.0486931    0.3945528    0.0302412
C     3.4483363    0.4614633    0.5573939
H     4.3095794    1.0606054    0.8334846
C     3.5427346   -0.8855926    0.4749463
H     4.4731467   -1.3939704    0.7038822
C     2.4490052   -1.6474447   -0.0196319
C     1.2150704   -1.0057258   -0.3013573
C     0.2531113   -1.7434440   -1.0216591
H    -0.6541356   -1.2535051   -1.3462847
C     0.4494193   -3.0628597   -1.3413779
H    -0.3083162   -3.5944309   -1.9054060
C     1.6251726   -3.7207967   -0.9552541
H     1.7670048   -4.7687404   -1.1927019
C     2.6109872   -3.0144177   -0.3183050
H     3.5525612   -3.4902813   -0.0646367
Bq         3.1750320635    -1.1490260463     0.2693639892
Bq         3.1731865383    -1.0995346993     0.2762342590
Bq         3.1713410130    -1.0500433523     0.2831045287
Bq         3.1694954877    -1.0005520053     0.2899747985
Bq         3.1676499625    -0.9510606583     0.2968450683
Bq         3.1658044372    -0.9015693112     0.3037153381
Bq         3.1639589119    -0.8520779642     0.3105856079
Bq         3.1621133867    -0.8025866172     0.3174558776
Bq         3.1602678614    -0.7530952702     0.3243261474
Bq         3.1584223361    -0.7036039232     0.3311964172
Bq         3.1565768109    -0.6541125761     0.3380666870
Bq         3.1547312856    -0.6046212291     0.3449369568
Bq         3.1528857603    -0.5551298821     0.3518072265
Bq         3.1510402351    -0.5056385351     0.3586774963
Bq         3.1491947098    -0.4561471881     0.3655477661
Bq         3.1473491845    -0.4066558411     0.3724180359
Bq         3.1455036593    -0.3571644940     0.3792883056
Bq         3.1436581340    -0.3076731470     0.3861585754
Bq         3.1418126087    -0.2581818000     0.3930288452
Bq         3.1399670835    -0.2086904530     0.3998991150
Bq         3.1381215582    -0.1591991060     0.4067693848
Bq         3.1362760329    -0.1097077589     0.4136396545
Bq         3.1344305077    -0.0602164119     0.4205099243
Bq         3.1325849824    -0.0107250649     0.4273801941
Bq         3.1307394571     0.0387662821     0.4342504639
Bq         3.1288939319     0.0882576291     0.4411207337
Bq         3.1270484066     0.1377489761     0.4479910034
Bq         3.1252028813     0.1872403232     0.4548612732
Bq         3.1233573561     0.2367316702     0.4617315430
Bq         3.1215118308     0.2862230172     0.4686018128
Bq         3.1196663055     0.3357143642     0.4754720826
Bq         3.1178207802     0.3852057112     0.4823423523
Bq         3.1159752550     0.4346970583     0.4892126221
Bq         3.1141297297     0.4841884053     0.4960828919
Bq         3.1122842044     0.5336797523     0.5029531617
Bq         3.1104386792     0.5831710993     0.5098234315
Bq         3.1085931539     0.6326624463     0.5166937012
Bq         3.1067476286     0.6821537933     0.5235639710
Bq         3.1049021034     0.7316451404     0.5304342408
Bq         3.1030565781     0.7811364874     0.5373045106
Bq         3.1012110528     0.8306278344     0.5441747804
Bq         3.0993655276     0.8801191814     0.5510450501
Bq         3.0975200023     0.9296105284     0.5579153199
Bq         3.0956744770     0.9791018754     0.5647855897
Bq         3.0938289518     1.0285932225     0.5716558595
Bq         3.0919834265     1.0780845695     0.5785261293
Bq         3.0901379012     1.1275759165     0.5853963990
Bq         3.0882923760     1.1770672635     0.5922666688
Bq         3.0864468507     1.2265586105     0.5991369386
Bq         3.0846013254     1.2760499576     0.6060072084
Bq         3.0827558002     1.3255413046     0.6128774781
Bq         3.0809102749     1.3750326516     0.6197477479
Bq         3.0790647496     1.4245239986     0.6266180177
Bq         3.0772192244     1.4740153456     0.6334882875
Bq         3.0753736991     1.5235066926     0.6403585573
Bq         3.0735281738     1.5729980397     0.6472288270
Bq         3.0716826486     1.6224893867     0.6540990968
Bq         3.0698371233     1.6719807337     0.6609693666
Bq         3.0679915980     1.7214720807     0.6678396364
Bq         3.0661460728     1.7709634277     0.6747099062
Bq         3.0643005475     1.8204547748     0.6815801759
Bq         3.0624550222     1.8699461218     0.6884504457
Bq         3.0606094970     1.9194374688     0.6953207155
Bq         3.0587639717     1.9689288158     0.7021909853
Bq         3.0569184464     2.0184201628     0.7090612551
Bq         3.0550729211     2.0679115098     0.7159315248
Bq         3.0532273959     2.1174028569     0.7228017946
Bq         3.0513818706     2.1668942039     0.7296720644
Bq         3.0495363453     2.2163855509     0.7365423342
Bq         3.2823769971    -2.7327491509     0.0624867471
Bq         3.2805314719    -2.6832578039     0.0693570169
Bq         3.2786859466    -2.6337664569     0.0762272867
Bq         3.2768404213    -2.5842751098     0.0830975565
Bq         3.2749948961    -2.5347837628     0.0899678262
Bq         3.2731493708    -2.4852924158     0.0968380960
Bq         3.2713038455    -2.4358010688     0.1037083658
Bq         3.2694583203    -2.3863097218     0.1105786356
Bq         3.2676127950    -2.3368183748     0.1174489054
Bq         3.2657672697    -2.2873270277     0.1243191751
Bq         3.2639217445    -2.2378356807     0.1311894449
Bq         3.2620762192    -2.1883443337     0.1380597147
Bq         3.2602306939    -2.1388529867     0.1449299845
Bq         3.2583851687    -2.0893616397     0.1518002543
Bq         3.2565396434    -2.0398702926     0.1586705240
Bq         3.2546941181    -1.9903789456     0.1655407938
Bq         3.2528485929    -1.9408875986     0.1724110636
Bq         3.2510030676    -1.8913962516     0.1792813334
Bq         3.2491575423    -1.8419049046     0.1861516032
Bq         3.2473120171    -1.7924135576     0.1930218729
Bq         3.2454664918    -1.7429222105     0.1998921427
Bq         3.2436209665    -1.6934308635     0.2067624125
Bq         3.2417754412    -1.6439395165     0.2136326823
Bq         3.2399299160    -1.5944481695     0.2205029521
Bq         3.2380843907    -1.5449568225     0.2273732218
Bq         3.2362388654    -1.4954654754     0.2342434916
Bq         3.2343933402    -1.4459741284     0.2411137614
Bq         3.2325478149    -1.3964827814     0.2479840312
Bq         3.2307022896    -1.3469914344     0.2548543010
Bq         3.2288567644    -1.2975000874     0.2617245707
Bq         3.2270112391    -1.2480087404     0.2685948405
Bq         3.2251657138    -1.1985173933     0.2754651103
Bq         3.2233201886    -1.1490260463     0.2823353801
Bq         3.2214746633    -1.0995346993     0.2892056499
Bq         3.2196291380    -1.0500433523     0.2960759196
Bq         3.2177836128    -1.0005520053     0.3029461894
Bq         3.2159380875    -0.9510606583     0.3098164592
Bq         3.2140925622    -0.9015693112     0.3166867290
Bq         3.2122470370    -0.8520779642     0.3235569987
Bq         3.2104015117    -0.8025866172     0.3304272685
Bq         3.2085559864    -0.7530952702     0.3372975383
Bq         3.2067104612    -0.7036039232     0.3441678081
Bq         3.2048649359    -0.6541125761     0.3510380779
Bq         3.2030194106    -0.6046212291     0.3579083476
Bq         3.2011738854    -0.5551298821     0.3647786174
Bq         3.1993283601    -0.5056385351     0.3716488872
Bq         3.1974828348    -0.4561471881     0.3785191570
Bq         3.1956373096    -0.4066558411     0.3853894268
Bq         3.1937917843    -0.3571644940     0.3922596965
Bq         3.1919462590    -0.3076731470     0.3991299663
Bq         3.1901007338    -0.2581818000     0.4060002361
Bq         3.1882552085    -0.2086904530     0.4128705059
Bq         3.1864096832    -0.1591991060     0.4197407757
Bq         3.1845641579    -0.1097077589     0.4266110454
Bq         3.1827186327    -0.0602164119     0.4334813152
Bq         3.1808731074    -0.0107250649     0.4403515850
Bq         3.1790275821     0.0387662821     0.4472218548
Bq         3.1771820569     0.0882576291     0.4540921246
Bq         3.1753365316     0.1377489761     0.4609623943
Bq         3.1734910063     0.1872403232     0.4678326641
Bq         3.1716454811     0.2367316702     0.4747029339
Bq         3.1697999558     0.2862230172     0.4815732037
Bq         3.1679544305     0.3357143642     0.4884434735
Bq         3.1661089053     0.3852057112     0.4953137432
Bq         3.1642633800     0.4346970583     0.5021840130
Bq         3.1624178547     0.4841884053     0.5090542828
Bq         3.1605723295     0.5336797523     0.5159245526
Bq         3.1587268042     0.5831710993     0.5227948224
Bq         3.1568812789     0.6326624463     0.5296650921
Bq         3.1550357537     0.6821537933     0.5365353619
Bq         3.1531902284     0.7316451404     0.5434056317
Bq         3.1513447031     0.7811364874     0.5502759015
Bq         3.1494991779     0.8306278344     0.5571461712
Bq         3.1476536526     0.8801191814     0.5640164410
Bq         3.1458081273     0.9296105284     0.5708867108
Bq         3.1439626021     0.9791018754     0.5777569806
Bq         3.1421170768     1.0285932225     0.5846272504
Bq         3.1402715515     1.0780845695     0.5914975201
Bq         3.1384260263     1.1275759165     0.5983677899
Bq         3.1365805010     1.1770672635     0.6052380597
Bq         3.1347349757     1.2265586105     0.6121083295
Bq         3.1328894505     1.2760499576     0.6189785993
Bq         3.1310439252     1.3255413046     0.6258488690
Bq         3.1291983999     1.3750326516     0.6327191388
Bq         3.1273528747     1.4245239986     0.6395894086
Bq         3.1255073494     1.4740153456     0.6464596784
Bq         3.1236618241     1.5235066926     0.6533299482
Bq         3.1218162988     1.5729980397     0.6602002179
Bq         3.1199707736     1.6224893867     0.6670704877
Bq         3.1181252483     1.6719807337     0.6739407575
Bq         3.1162797230     1.7214720807     0.6808110273
Bq         3.1144341978     1.7709634277     0.6876812971
Bq         3.1125886725     1.8204547748     0.6945515668
Bq         3.1107431472     1.8699461218     0.7014218366
Bq         3.1088976220     1.9194374688     0.7082921064
Bq         3.1070520967     1.9689288158     0.7151623762
Bq         3.1052065714     2.0184201628     0.7220326460
Bq         3.1033610462     2.0679115098     0.7289029157
Bq         3.1015155209     2.1174028569     0.7357731855
Bq         3.0996699956     2.1668942039     0.7426434553
Bq         3.0978244704     2.2163855509     0.7495137251
Bq         3.3306651222    -2.7327491509     0.0754581380
Bq         3.3288195969    -2.6832578039     0.0823284078
Bq         3.3269740716    -2.6337664569     0.0891986776
Bq         3.3251285464    -2.5842751098     0.0960689474
Bq         3.3232830211    -2.5347837628     0.1029392171
Bq         3.3214374958    -2.4852924158     0.1098094869
Bq         3.3195919706    -2.4358010688     0.1166797567
Bq         3.3177464453    -2.3863097218     0.1235500265
Bq         3.3159009200    -2.3368183748     0.1304202963
Bq         3.3140553948    -2.2873270277     0.1372905660
Bq         3.3122098695    -2.2378356807     0.1441608358
Bq         3.3103643442    -2.1883443337     0.1510311056
Bq         3.3085188189    -2.1388529867     0.1579013754
Bq         3.3066732937    -2.0893616397     0.1647716452
Bq         3.3048277684    -2.0398702926     0.1716419149
Bq         3.3029822431    -1.9903789456     0.1785121847
Bq         3.3011367179    -1.9408875986     0.1853824545
Bq         3.2992911926    -1.8913962516     0.1922527243
Bq         3.2974456673    -1.8419049046     0.1991229941
Bq         3.2956001421    -1.7924135576     0.2059932638
Bq         3.2937546168    -1.7429222105     0.2128635336
Bq         3.2919090915    -1.6934308635     0.2197338034
Bq         3.2900635663    -1.6439395165     0.2266040732
Bq         3.2882180410    -1.5944481695     0.2334743430
Bq         3.2863725157    -1.5449568225     0.2403446127
Bq         3.2845269905    -1.4954654754     0.2472148825
Bq         3.2826814652    -1.4459741284     0.2540851523
Bq         3.2808359399    -1.3964827814     0.2609554221
Bq         3.2789904147    -1.3469914344     0.2678256918
Bq         3.2771448894    -1.2975000874     0.2746959616

1
2
3
4
5
6
7
8
9
10
11
12
13
14
15
16
17
18
19
20
21
22
23
24
25
26
27
28
29
30
31
32
33
34
35
36
37
38
39
40
41
42
43
44
45
46
47
48
49
50
51
52
53
54
55
56
57
58
59
60
61
62
63
64
65
66
67
68
69
70
71
72
73
74
75
76
77
78
79
80
81
82
83
84
85
86
87
88
89
90
91
92
93
94
95
96
97
98
99
100
101
102
103
104
105
106
107
108
109
110
111
112
113
114
115
116
117
118
119
120
121
122
123
124
125
126
127
128
129
130
131
132
133
134
135
136
137
138
139
140
141
142
143
144
145
146
147
148
149
150
151
152
153
154
155
156
157
158
159
160
161
162
163
164
165
166
167
168
169
170
171
172
173
174
175
176
177
178
179
180
181
182
183
184
185
186
187
188
189
190
191
192
193
194
195
196
197
198
199
200
201
202
203
204
205
206
207
208
209
210
211
212
213
214
215
216
217
218
219
220
221
222
223
224
225
226
227
228
229
230
231
232
233
234
235
236

