%nproc=8
%mem=1000MB
# rb3lyp/6-311+g** NMR geom=connectivity

Title

0 1
C    -4.0500558   -0.5771862    0.8136712
H    -5.0263804   -1.0082727    1.0024760
C    -3.9381552    0.6617804    0.2400876
H    -4.8252424    1.2338890   -0.0111295
C    -2.6768410    1.2433246    0.0057578
C    -1.4974121    0.5051527    0.2848253
C    -1.6508332   -0.7338728    0.9404026
H    -0.7713646   -1.2730967    1.2633753
C    -2.8898548   -1.2624035    1.1994307
H    -2.9683706   -2.2124563    1.7152676
C    -2.5773185    2.5963696   -0.4192930
H    -3.4870728    3.1412239   -0.6474055
C    -1.3741895    3.2147896   -0.4364030
H    -1.2997315    4.2742019   -0.6578144
C    -0.1719488    2.4994090   -0.1734588
C    -0.2043917    1.1018437    0.0192689
C     1.0513491    3.2042560   -0.0676222
H     1.0427344    4.2819499   -0.1896997
C     2.1942091    2.5487446    0.2579577
H     3.1168527    3.0912848    0.4334727
C     2.2216473    1.1336562    0.2934990
C     1.0486931    0.3945528    0.0302412
C     3.4483363    0.4614633    0.5573939
H     4.3095794    1.0606054    0.8334846
C     3.5427346   -0.8855926    0.4749463
H     4.4731467   -1.3939704    0.7038822
C     2.4490052   -1.6474447   -0.0196319
C     1.2150704   -1.0057258   -0.3013573
C     0.2531113   -1.7434440   -1.0216591
H    -0.6541356   -1.2535051   -1.3462847
C     0.4494193   -3.0628597   -1.3413779
H    -0.3083162   -3.5944309   -1.9054060
C     1.6251726   -3.7207967   -0.9552541
H     1.7670048   -4.7687404   -1.1927019
C     2.6109872   -3.0144177   -0.3183050
H     3.5525612   -3.4902813   -0.0646367
Bq        -2.3575139477     2.7326066875    -0.3783050716
Bq        -2.3570274706     2.7810766034    -0.3905700863
Bq        -2.3565409935     2.8295465194    -0.4028351010
Bq        -2.3560545164     2.8780164354    -0.4151001157
Bq        -2.3555680393     2.9264863513    -0.4273651304
Bq        -2.3550815622     2.9749562673    -0.4396301451
Bq        -2.3545950851     3.0234261833    -0.4518951598
Bq        -2.3541086079     3.0718960992    -0.4641601745
Bq        -2.3536221308     3.1203660152    -0.4764251893
Bq        -2.3531356537     3.1688359312    -0.4886902040
Bq        -2.3526491766     3.2173058471    -0.5009552187
Bq        -2.3521626995     3.2657757631    -0.5132202334
Bq        -2.3516762224     3.3142456791    -0.5254852481
Bq        -2.3511897453     3.3627155951    -0.5377502628
Bq        -2.3507032682     3.4111855110    -0.5500152775
Bq        -2.3502167910     3.4596554270    -0.5622802923
Bq        -2.3497303139     3.5081253430    -0.5745453070
Bq        -2.3492438368     3.5565952589    -0.5868103217
Bq        -2.3487573597     3.6050651749    -0.5990753364
Bq        -2.3482708826     3.6535350909    -0.6113403511
Bq        -2.3477844055     3.7020050068    -0.6236053658
Bq        -2.3472979284     3.7504749228    -0.6358703805
Bq        -2.3468114513     3.7989448388    -0.6481353953
Bq        -2.3463249741     3.8474147548    -0.6604004100
Bq        -2.3458384970     3.8958846707    -0.6726654247
Bq        -2.3453520199     3.9443545867    -0.6849304394
Bq        -2.3448655428     3.9928245027    -0.6971954541
Bq        -2.3443790657     4.0412944186    -0.7094604688
Bq        -2.3438925886     4.0897643346    -0.7217254835
Bq        -2.3434061115     4.1382342506    -0.7339904982
Bq        -2.3429196344     4.1867041665    -0.7462555130
Bq        -2.3424331572     4.2351740825    -0.7585205277
Bq        -2.3419466801     4.2836439985    -0.7707855424
Bq        -2.3406336754    -0.5633475985     0.4576975609
Bq        -2.3401471983    -0.5148776825     0.4454325462
Bq        -2.3396607212    -0.4664077665     0.4331675315
Bq        -2.3391742441    -0.4179378506     0.4209025168
Bq        -2.3386877670    -0.3694679346     0.4086375020
Bq        -2.3382012899    -0.3209980186     0.3963724873
Bq        -2.3377148128    -0.2725281027     0.3841074726
Bq        -2.3372283357    -0.2240581867     0.3718424579
Bq        -2.3367418585    -0.1755882707     0.3595774432
Bq        -2.3362553814    -0.1271183548     0.3473124285
Bq        -2.3357689043    -0.0786484388     0.3350474138
Bq        -2.3352824272    -0.0301785228     0.3227823991
Bq        -2.3347959501     0.0182913932     0.3105173843
Bq        -2.3343094730     0.0667613091     0.2982523696
Bq        -2.3338229959     0.1152312251     0.2859873549
Bq        -2.3333365188     0.1637011411     0.2737223402
Bq        -2.3328500416     0.2121710570     0.2614573255
Bq        -2.3323635645     0.2606409730     0.2491923108
Bq        -2.3318770874     0.3091108890     0.2369272961
Bq        -2.3313906103     0.3575808049     0.2246622813
Bq        -2.3309041332     0.4060507209     0.2123972666
Bq        -2.3304176561     0.4545206369     0.2001322519
Bq        -2.3299311790     0.5029905529     0.1878672372
Bq        -2.3294447019     0.5514604688     0.1756022225
Bq        -2.3289582247     0.5999303848     0.1633372078
Bq        -2.3284717476     0.6484003008     0.1510721931
Bq        -2.3279852705     0.6968702167     0.1388071783
Bq        -2.3274987934     0.7453401327     0.1265421636
Bq        -2.3270123163     0.7938100487     0.1142771489
Bq        -2.3265258392     0.8422799646     0.1020121342
Bq        -2.3260393621     0.8907498806     0.0897471195
Bq        -2.3255528850     0.9392197966     0.0774821048
Bq        -2.3250664078     0.9876897125     0.0652170901
Bq        -2.3245799307     1.0361596285     0.0529520754
Bq        -2.3240934536     1.0846295445     0.0406870606
Bq        -2.3236069765     1.1330994605     0.0284220459
Bq        -2.3231204994     1.1815693764     0.0161570312
Bq        -2.3226340223     1.2300392924     0.0038920165
Bq        -2.3221475452     1.2785092084    -0.0083729982
Bq        -2.3216610681     1.3269791243    -0.0206380129
Bq        -2.3211745910     1.3754490403    -0.0329030276
Bq        -2.3206881138     1.4239189563    -0.0451680424
Bq        -2.3202016367     1.4723888722    -0.0574330571
Bq        -2.3197151596     1.5208587882    -0.0696980718
Bq        -2.3192286825     1.5693287042    -0.0819630865
Bq        -2.3187422054     1.6177986202    -0.0942281012
Bq        -2.3182557283     1.6662685361    -0.1064931159
Bq        -2.3177692512     1.7147384521    -0.1187581306
Bq        -2.3172827741     1.7632083681    -0.1310231453
Bq        -2.3167962969     1.8116782840    -0.1432881601
Bq        -2.3163098198     1.8601482000    -0.1555531748
Bq        -2.3158233427     1.9086181160    -0.1678181895
Bq        -2.3153368656     1.9570880319    -0.1800832042
Bq        -2.3148503885     2.0055579479    -0.1923482189
Bq        -2.3143639114     2.0540278639    -0.2046132336
Bq        -2.3138774343     2.1024977798    -0.2168782483
Bq        -2.3133909572     2.1509676958    -0.2291432631
Bq        -2.3129044800     2.1994376118    -0.2414082778
Bq        -2.3124180029     2.2479075278    -0.2536732925
Bq        -2.3119315258     2.2963774437    -0.2659383072
Bq        -2.3114450487     2.3448473597    -0.2782033219
Bq        -2.3109585716     2.3933172757    -0.2904683366
Bq        -2.3104720945     2.4417871916    -0.3027333513
Bq        -2.3099856174     2.4902571076    -0.3149983661
Bq        -2.3094991403     2.5387270236    -0.3272633808
Bq        -2.3090126631     2.5871969395    -0.3395283955
Bq        -2.3085261860     2.6356668555    -0.3517934102
Bq        -2.3080397089     2.6841367715    -0.3640584249
Bq        -2.3075532318     2.7326066875    -0.3763234396
Bq        -2.3070667547     2.7810766034    -0.3885884543
Bq        -2.3065802776     2.8295465194    -0.4008534690
Bq        -2.3060938005     2.8780164354    -0.4131184838
Bq        -2.3056073234     2.9264863513    -0.4253834985
Bq        -2.3051208462     2.9749562673    -0.4376485132
Bq        -2.3046343691     3.0234261833    -0.4499135279
Bq        -2.3041478920     3.0718960992    -0.4621785426
Bq        -2.3036614149     3.1203660152    -0.4744435573
Bq        -2.3031749378     3.1688359312    -0.4867085720
Bq        -2.3026884607     3.2173058471    -0.4989735868
Bq        -2.3022019836     3.2657757631    -0.5112386015
Bq        -2.3017155065     3.3142456791    -0.5235036162
Bq        -2.3012290294     3.3627155951    -0.5357686309
Bq        -2.3007425522     3.4111855110    -0.5480336456
Bq        -2.3002560751     3.4596554270    -0.5602986603
Bq        -2.2997695980     3.5081253430    -0.5725636750
Bq        -2.2992831209     3.5565952589    -0.5848286898
Bq        -2.2987966438     3.6050651749    -0.5970937045
Bq        -2.2983101667     3.6535350909    -0.6093587192
Bq        -2.2978236896     3.7020050068    -0.6216237339
Bq        -2.2973372125     3.7504749228    -0.6338887486
Bq        -2.2968507353     3.7989448388    -0.6461537633
Bq        -2.2963642582     3.8474147548    -0.6584187780
Bq        -2.2958777811     3.8958846707    -0.6706837927
Bq        -2.2953913040     3.9443545867    -0.6829488075
Bq        -2.2949048269     3.9928245027    -0.6952138222
Bq        -2.2944183498     4.0412944186    -0.7074788369
Bq        -2.2939318727     4.0897643346    -0.7197438516
Bq        -2.2934453956     4.1382342506    -0.7320088663
Bq        -2.2929589184     4.1867041665    -0.7442738810
Bq        -2.2924724413     4.2351740825    -0.7565388957
Bq        -2.2919859642     4.2836439985    -0.7688039105
Bq        -2.2906729595    -0.5633475985     0.4596791928
Bq        -2.2901864824    -0.5148776825     0.4474141781
Bq        -2.2897000053    -0.4664077665     0.4351491634
Bq        -2.2892135282    -0.4179378506     0.4228841487
Bq        -2.2887270511    -0.3694679346     0.4106191340
Bq        -2.2882405740    -0.3209980186     0.3983541193
Bq        -2.2877540969    -0.2725281027     0.3860891046
Bq        -2.2872676197    -0.2240581867     0.3738240898
Bq        -2.2867811426    -0.1755882707     0.3615590751
Bq        -2.2862946655    -0.1271183548     0.3492940604
Bq        -2.2858081884    -0.0786484388     0.3370290457
Bq        -2.2853217113    -0.0301785228     0.3247640310
Bq        -2.2848352342     0.0182913932     0.3124990163
Bq        -2.2843487571     0.0667613091     0.3002340016
Bq        -2.2838622800     0.1152312251     0.2879689868
Bq        -2.2833758028     0.1637011411     0.2757039721
Bq        -2.2828893257     0.2121710570     0.2634389574
Bq        -2.2824028486     0.2606409730     0.2511739427
Bq        -2.2819163715     0.3091108890     0.2389089280
Bq        -2.2814298944     0.3575808049     0.2266439133
Bq        -2.2809434173     0.4060507209     0.2143788986
Bq        -2.2804569402     0.4545206369     0.2021138838
Bq        -2.2799704631     0.5029905529     0.1898488691
Bq        -2.2794839859     0.5514604688     0.1775838544
Bq        -2.2789975088     0.5999303848     0.1653188397
Bq        -2.2785110317     0.6484003008     0.1530538250
Bq        -2.2780245546     0.6968702167     0.1407888103
Bq        -2.2775380775     0.7453401327     0.1285237956
Bq        -2.2770516004     0.7938100487     0.1162587809
Bq        -2.2765651233     0.8422799646     0.1039937661
Bq        -2.2760786462     0.8907498806     0.0917287514
Bq        -2.2755921690     0.9392197966     0.0794637367
Bq        -2.2751056919     0.9876897125     0.0671987220
Bq        -2.2746192148     1.0361596285     0.0549337073
Bq        -2.2741327377     1.0846295445     0.0426686926
Bq        -2.2736462606     1.1330994605     0.0304036779
Bq        -2.2731597835     1.1815693764     0.0181386631
Bq        -2.2726733064     1.2300392924     0.0058736484
Bq        -2.2721868293     1.2785092084    -0.0063913663
Bq        -2.2717003521     1.3269791243    -0.0186563810
Bq        -2.2712138750     1.3754490403    -0.0309213957
Bq        -2.2707273979     1.4239189563    -0.0431864104
Bq        -2.2702409208     1.4723888722    -0.0554514251
Bq        -2.2697544437     1.5208587882    -0.0677164398
Bq        -2.2692679666     1.5693287042    -0.0799814546
Bq        -2.2687814895     1.6177986202    -0.0922464693
Bq        -2.2682950124     1.6662685361    -0.1045114840
Bq        -2.2678085352     1.7147384521    -0.1167764987
Bq        -2.2673220581     1.7632083681    -0.1290415134
Bq        -2.2668355810     1.8116782840    -0.1413065281
Bq        -2.2663491039     1.8601482000    -0.1535715428
Bq        -2.2658626268     1.9086181160    -0.1658365576
Bq        -2.2653761497     1.9570880319    -0.1781015723
Bq        -2.2648896726     2.0055579479    -0.1903665870
Bq        -2.2644031955     2.0540278639    -0.2026316017
Bq        -2.2639167184     2.1024977798    -0.2148966164
Bq        -2.2634302412     2.1509676958    -0.2271616311
Bq        -2.2629437641     2.1994376118    -0.2394266458
Bq        -2.2624572870     2.2479075278    -0.2516916606
Bq        -2.2619708099     2.2963774437    -0.2639566753
Bq        -2.2614843328     2.3448473597    -0.2762216900
Bq        -2.2609978557     2.3933172757    -0.2884867047
Bq        -2.2605113786     2.4417871916    -0.3007517194
Bq        -2.2600249015     2.4902571076    -0.3130167341
Bq        -2.2595384243     2.5387270236    -0.3252817488
Bq        -2.2590519472     2.5871969395    -0.3375467635

1
2
3
4
5
6
7
8
9
10
11
12
13
14
15
16
17
18
19
20
21
22
23
24
25
26
27
28
29
30
31
32
33
34
35
36
37
38
39
40
41
42
43
44
45
46
47
48
49
50
51
52
53
54
55
56
57
58
59
60
61
62
63
64
65
66
67
68
69
70
71
72
73
74
75
76
77
78
79
80
81
82
83
84
85
86
87
88
89
90
91
92
93
94
95
96
97
98
99
100
101
102
103
104
105
106
107
108
109
110
111
112
113
114
115
116
117
118
119
120
121
122
123
124
125
126
127
128
129
130
131
132
133
134
135
136
137
138
139
140
141
142
143
144
145
146
147
148
149
150
151
152
153
154
155
156
157
158
159
160
161
162
163
164
165
166
167
168
169
170
171
172
173
174
175
176
177
178
179
180
181
182
183
184
185
186
187
188
189
190
191
192
193
194
195
196
197
198
199
200
201
202
203
204
205
206
207
208
209
210
211
212
213
214
215
216
217
218
219
220
221
222
223
224
225
226
227
228
229
230
231
232
233
234
235
236

