%nproc=8
%mem=1000MB
# rb3lyp/6-311+g** NMR geom=connectivity

Title

0 1
C    -4.0500558   -0.5771862    0.8136712
H    -5.0263804   -1.0082727    1.0024760
C    -3.9381552    0.6617804    0.2400876
H    -4.8252424    1.2338890   -0.0111295
C    -2.6768410    1.2433246    0.0057578
C    -1.4974121    0.5051527    0.2848253
C    -1.6508332   -0.7338728    0.9404026
H    -0.7713646   -1.2730967    1.2633753
C    -2.8898548   -1.2624035    1.1994307
H    -2.9683706   -2.2124563    1.7152676
C    -2.5773185    2.5963696   -0.4192930
H    -3.4870728    3.1412239   -0.6474055
C    -1.3741895    3.2147896   -0.4364030
H    -1.2997315    4.2742019   -0.6578144
C    -0.1719488    2.4994090   -0.1734588
C    -0.2043917    1.1018437    0.0192689
C     1.0513491    3.2042560   -0.0676222
H     1.0427344    4.2819499   -0.1896997
C     2.1942091    2.5487446    0.2579577
H     3.1168527    3.0912848    0.4334727
C     2.2216473    1.1336562    0.2934990
C     1.0486931    0.3945528    0.0302412
C     3.4483363    0.4614633    0.5573939
H     4.3095794    1.0606054    0.8334846
C     3.5427346   -0.8855926    0.4749463
H     4.4731467   -1.3939704    0.7038822
C     2.4490052   -1.6474447   -0.0196319
C     1.2150704   -1.0057258   -0.3013573
C     0.2531113   -1.7434440   -1.0216591
H    -0.6541356   -1.2535051   -1.3462847
C     0.4494193   -3.0628597   -1.3413779
H    -0.3083162   -3.5944309   -1.9054060
C     1.6251726   -3.7207967   -0.9552541
H     1.7670048   -4.7687404   -1.1927019
C     2.6109872   -3.0144177   -0.3183050
H     3.5525612   -3.4902813   -0.0646367
Bq         0.7773236415     2.0135021474     0.0140241098
Bq         0.7776797085     2.0634417551     0.0115933075
Bq         0.7780357755     2.1133813628     0.0091625051
Bq         0.7783918425     2.1633209705     0.0067317027
Bq         0.7787479094     2.2132605782     0.0043009003
Bq         0.7791039764     2.2632001859     0.0018700979
Bq         0.7794600434     2.3131397936    -0.0005607045
Bq         0.7798161103     2.3630794012    -0.0029915068
Bq         0.7801721773     2.4130190089    -0.0054223092
Bq         0.7805282443     2.4629586166    -0.0078531116
Bq         0.7808843112     2.5128982243    -0.0102839140
Bq         0.7812403782     2.5628378320    -0.0127147164
Bq         0.7815964452     2.6127774397    -0.0151455188
Bq         0.7819525122     2.6627170474    -0.0175763211
Bq         0.7823085791     2.7126566551    -0.0200071235
Bq         0.7826646461     2.7625962627    -0.0224379259
Bq         0.7830207131     2.8125358704    -0.0248687283
Bq         0.7833767800     2.8624754781    -0.0272995307
Bq         0.7837328470     2.9124150858    -0.0297303330
Bq         0.7840889140     2.9623546935    -0.0321611354
Bq         0.7844449810     3.0122943012    -0.0345919378
Bq         0.7848010479     3.0622339089    -0.0370227402
Bq         0.7851571149     3.1121735166    -0.0394535426
Bq         0.7855131819     3.1621131243    -0.0418843450
Bq         0.7858692488     3.2120527319    -0.0443151473
Bq         0.7862253158     3.2619923396    -0.0467459497
Bq         0.7865813828     3.3119319473    -0.0491767521
Bq         0.7869374498     3.3618715550    -0.0516075545
Bq         0.7872935167     3.4118111627    -0.0540383569
Bq         0.7876495837     3.4617507704    -0.0564691593
Bq         0.7880056507     3.5116903781    -0.0588999616
Bq         0.7883617176     3.5616299858    -0.0613307640
Bq         0.7887177846     3.6115695935    -0.0637615664
Bq         0.7890738516     3.6615092011    -0.0661923688
Bq         0.7894299185     3.7114488088    -0.0686231712
Bq         0.7897859855     3.7613884165    -0.0710539736
Bq         0.7901420525     3.8113280242    -0.0734847759
Bq         0.7904981195     3.8612676319    -0.0759155783
Bq         0.7908541864     3.9112072396    -0.0783463807
Bq         0.7912102534     3.9611468473    -0.0807771831
Bq         0.7915663204     4.0110864550    -0.0832079855
Bq         0.7919223873     4.0610260627    -0.0856387879
Bq         0.7922784543     4.1109656703    -0.0880695902
Bq         0.7926345213     4.1609052780    -0.0905003926
Bq         0.7929905883     4.2108448857    -0.0929311950
Bq         0.7933466552     4.2607844934    -0.0953619974
Bq         0.7937027222     4.3107241011    -0.0977927998
Bq         0.8075680870    -0.6832366678     0.1525341680
Bq         0.8079241540    -0.6332970601     0.1501033656
Bq         0.8082802210    -0.5833574524     0.1476725632
Bq         0.8086362880    -0.5334178447     0.1452417609
Bq         0.8089923549    -0.4834782370     0.1428109585
Bq         0.8093484219    -0.4335386293     0.1403801561
Bq         0.8097044889    -0.3835990216     0.1379493537
Bq         0.8100605558    -0.3336594139     0.1355185513
Bq         0.8104166228    -0.2837198063     0.1330877489
Bq         0.8107726898    -0.2337801986     0.1306569466
Bq         0.8111287568    -0.1838405909     0.1282261442
Bq         0.8114848237    -0.1339009832     0.1257953418
Bq         0.8118408907    -0.0839613755     0.1233645394
Bq         0.8121969577    -0.0340217678     0.1209337370
Bq         0.8125530246     0.0159178399     0.1185029346
Bq         0.8129090916     0.0658574476     0.1160721323
Bq         0.8132651586     0.1157970553     0.1136413299
Bq         0.8136212256     0.1657366629     0.1112105275
Bq         0.8139772925     0.2156762706     0.1087797251
Bq         0.8143333595     0.2656158783     0.1063489227
Bq         0.8146894265     0.3155554860     0.1039181203
Bq         0.8150454934     0.3654950937     0.1014873180
Bq         0.8154015604     0.4154347014     0.0990565156
Bq         0.8157576274     0.4653743091     0.0966257132
Bq         0.8161136943     0.5153139168     0.0941949108
Bq         0.8164697613     0.5652535245     0.0917641084
Bq         0.8168258283     0.6151931321     0.0893333060
Bq         0.8171818953     0.6651327398     0.0869025037
Bq         0.8175379622     0.7150723475     0.0844717013
Bq         0.8178940292     0.7650119552     0.0820408989
Bq         0.8182500962     0.8149515629     0.0796100965
Bq         0.8186061631     0.8648911706     0.0771792941
Bq         0.8189622301     0.9148307783     0.0747484917
Bq         0.8193182971     0.9647703860     0.0723176894
Bq         0.8196743641     1.0147099936     0.0698868870
Bq         0.8200304310     1.0646496013     0.0674560846
Bq         0.8203864980     1.1145892090     0.0650252822
Bq         0.8207425650     1.1645288167     0.0625944798
Bq         0.8210986319     1.2144684244     0.0601636774
Bq         0.8214546989     1.2644080321     0.0577328751
Bq         0.8218107659     1.3143476398     0.0553020727
Bq         0.8221668329     1.3642872475     0.0528712703
Bq         0.8225228998     1.4142268552     0.0504404679
Bq         0.8228789668     1.4641664628     0.0480096655
Bq         0.8232350338     1.5141060705     0.0455788631
Bq         0.8235911007     1.5640456782     0.0431480608
Bq         0.8239471677     1.6139852859     0.0407172584
Bq         0.8243032347     1.6639248936     0.0382864560
Bq         0.8246593016     1.7138645013     0.0358556536
Bq         0.8250153686     1.7638041090     0.0334248512
Bq         0.8253714356     1.8137437167     0.0309940488
Bq         0.8257275026     1.8636833244     0.0285632465
Bq         0.8260835695     1.9136229320     0.0261324441
Bq         0.8264396365     1.9635625397     0.0237016417
Bq         0.8267957035     2.0135021474     0.0212708393
Bq         0.8271517704     2.0634417551     0.0188400369
Bq         0.8275078374     2.1133813628     0.0164092345
Bq         0.8278639044     2.1633209705     0.0139784322
Bq         0.8282199714     2.2132605782     0.0115476298
Bq         0.8285760383     2.2632001859     0.0091168274
Bq         0.8289321053     2.3131397936     0.0066860250
Bq         0.8292881723     2.3630794012     0.0042552226
Bq         0.8296442392     2.4130190089     0.0018244202
Bq         0.8300003062     2.4629586166    -0.0006063821
Bq         0.8303563732     2.5128982243    -0.0030371845
Bq         0.8307124402     2.5628378320    -0.0054679869
Bq         0.8310685071     2.6127774397    -0.0078987893
Bq         0.8314245741     2.6627170474    -0.0103295917
Bq         0.8317806411     2.7126566551    -0.0127603941
Bq         0.8321367080     2.7625962627    -0.0151911964
Bq         0.8324927750     2.8125358704    -0.0176219988
Bq         0.8328488420     2.8624754781    -0.0200528012
Bq         0.8332049089     2.9124150858    -0.0224836036
Bq         0.8335609759     2.9623546935    -0.0249144060
Bq         0.8339170429     3.0122943012    -0.0273452084
Bq         0.8342731099     3.0622339089    -0.0297760107
Bq         0.8346291768     3.1121735166    -0.0322068131
Bq         0.8349852438     3.1621131243    -0.0346376155
Bq         0.8353413108     3.2120527319    -0.0370684179
Bq         0.8356973777     3.2619923396    -0.0394992203
Bq         0.8360534447     3.3119319473    -0.0419300227
Bq         0.8364095117     3.3618715550    -0.0443608250
Bq         0.8367655787     3.4118111627    -0.0467916274
Bq         0.8371216456     3.4617507704    -0.0492224298
Bq         0.8374777126     3.5116903781    -0.0516532322
Bq         0.8378337796     3.5616299858    -0.0540840346
Bq         0.8381898465     3.6115695935    -0.0565148370
Bq         0.8385459135     3.6615092011    -0.0589456393
Bq         0.8389019805     3.7114488088    -0.0613764417
Bq         0.8392580475     3.7613884165    -0.0638072441
Bq         0.8396141144     3.8113280242    -0.0662380465
Bq         0.8399701814     3.8612676319    -0.0686688489
Bq         0.8403262484     3.9112072396    -0.0710996513
Bq         0.8406823153     3.9611468473    -0.0735304536
Bq         0.8410383823     4.0110864550    -0.0759612560
Bq         0.8413944493     4.0610260627    -0.0783920584
Bq         0.8417505162     4.1109656703    -0.0808228608
Bq         0.8421065832     4.1609052780    -0.0832536632
Bq         0.8424626502     4.2108448857    -0.0856844656
Bq         0.8428187172     4.2607844934    -0.0881152679
Bq         0.8431747841     4.3107241011    -0.0905460703
Bq         0.8570401490    -0.6832366678     0.1597808975
Bq         0.8573962160    -0.6332970601     0.1573500951
Bq         0.8577522829    -0.5833574524     0.1549192927
Bq         0.8581083499    -0.5334178447     0.1524884903
Bq         0.8584644169    -0.4834782370     0.1500576879
Bq         0.8588204838    -0.4335386293     0.1476268855
Bq         0.8591765508    -0.3835990216     0.1451960832
Bq         0.8595326178    -0.3336594139     0.1427652808
Bq         0.8598886848    -0.2837198063     0.1403344784
Bq         0.8602447517    -0.2337801986     0.1379036760
Bq         0.8606008187    -0.1838405909     0.1354728736
Bq         0.8609568857    -0.1339009832     0.1330420712
Bq         0.8613129526    -0.0839613755     0.1306112689
Bq         0.8616690196    -0.0340217678     0.1281804665
Bq         0.8620250866     0.0159178399     0.1257496641
Bq         0.8623811535     0.0658574476     0.1233188617
Bq         0.8627372205     0.1157970553     0.1208880593
Bq         0.8630932875     0.1657366629     0.1184572569
Bq         0.8634493545     0.2156762706     0.1160264546
Bq         0.8638054214     0.2656158783     0.1135956522
Bq         0.8641614884     0.3155554860     0.1111648498
Bq         0.8645175554     0.3654950937     0.1087340474
Bq         0.8648736223     0.4154347014     0.1063032450
Bq         0.8652296893     0.4653743091     0.1038724426
Bq         0.8655857563     0.5153139168     0.1014416403
Bq         0.8659418233     0.5652535245     0.0990108379
Bq         0.8662978902     0.6151931321     0.0965800355
Bq         0.8666539572     0.6651327398     0.0941492331
Bq         0.8670100242     0.7150723475     0.0917184307
Bq         0.8673660911     0.7650119552     0.0892876283
Bq         0.8677221581     0.8149515629     0.0868568260
Bq         0.8680782251     0.8648911706     0.0844260236
Bq         0.8684342921     0.9148307783     0.0819952212
Bq         0.8687903590     0.9647703860     0.0795644188
Bq         0.8691464260     1.0147099936     0.0771336164
Bq         0.8695024930     1.0646496013     0.0747028140
Bq         0.8698585599     1.1145892090     0.0722720117
Bq         0.8702146269     1.1645288167     0.0698412093
Bq         0.8705706939     1.2144684244     0.0674104069
Bq         0.8709267608     1.2644080321     0.0649796045
Bq         0.8712828278     1.3143476398     0.0625488021
Bq         0.8716388948     1.3642872475     0.0601179997
Bq         0.8719949618     1.4142268552     0.0576871974
Bq         0.8723510287     1.4641664628     0.0552563950
Bq         0.8727070957     1.5141060705     0.0528255926
Bq         0.8730631627     1.5640456782     0.0503947902
Bq         0.8734192296     1.6139852859     0.0479639878
Bq         0.8737752966     1.6639248936     0.0455331854
Bq         0.8741313636     1.7138645013     0.0431023831
Bq         0.8744874306     1.7638041090     0.0406715807
Bq         0.8748434975     1.8137437167     0.0382407783
Bq         0.8751995645     1.8636833244     0.0358099759

1
2
3
4
5
6
7
8
9
10
11
12
13
14
15
16
17
18
19
20
21
22
23
24
25
26
27
28
29
30
31
32
33
34
35
36
37
38
39
40
41
42
43
44
45
46
47
48
49
50
51
52
53
54
55
56
57
58
59
60
61
62
63
64
65
66
67
68
69
70
71
72
73
74
75
76
77
78
79
80
81
82
83
84
85
86
87
88
89
90
91
92
93
94
95
96
97
98
99
100
101
102
103
104
105
106
107
108
109
110
111
112
113
114
115
116
117
118
119
120
121
122
123
124
125
126
127
128
129
130
131
132
133
134
135
136
137
138
139
140
141
142
143
144
145
146
147
148
149
150
151
152
153
154
155
156
157
158
159
160
161
162
163
164
165
166
167
168
169
170
171
172
173
174
175
176
177
178
179
180
181
182
183
184
185
186
187
188
189
190
191
192
193
194
195
196
197
198
199
200
201
202
203
204
205
206
207
208
209
210
211
212
213
214
215
216
217
218
219
220
221
222
223
224
225
226
227
228
229
230
231
232
233
234
235
236

