%nproc=8
%mem=1000MB
# rb3lyp/6-311+g** NMR geom=connectivity

Title

0 1
C    -4.0500558   -0.5771862    0.8136712
H    -5.0263804   -1.0082727    1.0024760
C    -3.9381552    0.6617804    0.2400876
H    -4.8252424    1.2338890   -0.0111295
C    -2.6768410    1.2433246    0.0057578
C    -1.4974121    0.5051527    0.2848253
C    -1.6508332   -0.7338728    0.9404026
H    -0.7713646   -1.2730967    1.2633753
C    -2.8898548   -1.2624035    1.1994307
H    -2.9683706   -2.2124563    1.7152676
C    -2.5773185    2.5963696   -0.4192930
H    -3.4870728    3.1412239   -0.6474055
C    -1.3741895    3.2147896   -0.4364030
H    -1.2997315    4.2742019   -0.6578144
C    -0.1719488    2.4994090   -0.1734588
C    -0.2043917    1.1018437    0.0192689
C     1.0513491    3.2042560   -0.0676222
H     1.0427344    4.2819499   -0.1896997
C     2.1942091    2.5487446    0.2579577
H     3.1168527    3.0912848    0.4334727
C     2.2216473    1.1336562    0.2934990
C     1.0486931    0.3945528    0.0302412
C     3.4483363    0.4614633    0.5573939
H     4.3095794    1.0606054    0.8334846
C     3.5427346   -0.8855926    0.4749463
H     4.4731467   -1.3939704    0.7038822
C     2.4490052   -1.6474447   -0.0196319
C     1.2150704   -1.0057258   -0.3013573
C     0.2531113   -1.7434440   -1.0216591
H    -0.6541356   -1.2535051   -1.3462847
C     0.4494193   -3.0628597   -1.3413779
H    -0.3083162   -3.5944309   -1.9054060
C     1.6251726   -3.7207967   -0.9552541
H     1.7670048   -4.7687404   -1.1927019
C     2.6109872   -3.0144177   -0.3183050
H     3.5525612   -3.4902813   -0.0646367
Bq        -3.6438441566     3.9928245027    -0.7487178843
Bq        -3.6433576795     4.0412944186    -0.7609828991
Bq        -3.6428712024     4.0897643346    -0.7732479138
Bq        -3.6423847253     4.1382342506    -0.7855129285
Bq        -3.6418982482     4.1867041665    -0.7977779432
Bq        -3.6414117711     4.2351740825    -0.8100429579
Bq        -3.6409252940     4.2836439985    -0.8223079726
Bq        -3.6396122893    -0.5633475985     0.4061751307
Bq        -3.6391258122    -0.5148776825     0.3939101160
Bq        -3.6386393350    -0.4664077665     0.3816451012
Bq        -3.6381528579    -0.4179378506     0.3693800865
Bq        -3.6376663808    -0.3694679346     0.3571150718
Bq        -3.6371799037    -0.3209980186     0.3448500571
Bq        -3.6366934266    -0.2725281027     0.3325850424
Bq        -3.6362069495    -0.2240581867     0.3203200277
Bq        -3.6357204724    -0.1755882707     0.3080550130
Bq        -3.6352339953    -0.1271183548     0.2957899982
Bq        -3.6347475181    -0.0786484388     0.2835249835
Bq        -3.6342610410    -0.0301785228     0.2712599688
Bq        -3.6337745639     0.0182913932     0.2589949541
Bq        -3.6332880868     0.0667613091     0.2467299394
Bq        -3.6328016097     0.1152312251     0.2344649247
Bq        -3.6323151326     0.1637011411     0.2221999100
Bq        -3.6318286555     0.2121710570     0.2099348953
Bq        -3.6313421784     0.2606409730     0.1976698805
Bq        -3.6308557012     0.3091108890     0.1854048658
Bq        -3.6303692241     0.3575808049     0.1731398511
Bq        -3.6298827470     0.4060507209     0.1608748364
Bq        -3.6293962699     0.4545206369     0.1486098217
Bq        -3.6289097928     0.5029905529     0.1363448070
Bq        -3.6284233157     0.5514604688     0.1240797923
Bq        -3.6279368386     0.5999303848     0.1118147775
Bq        -3.6274503615     0.6484003008     0.0995497628
Bq        -3.6269638844     0.6968702167     0.0872847481
Bq        -3.6264774072     0.7453401327     0.0750197334
Bq        -3.6259909301     0.7938100487     0.0627547187
Bq        -3.6255044530     0.8422799646     0.0504897040
Bq        -3.6250179759     0.8907498806     0.0382246893
Bq        -3.6245314988     0.9392197966     0.0259596745
Bq        -3.6240450217     0.9876897125     0.0136946598
Bq        -3.6235585446     1.0361596285     0.0014296451
Bq        -3.6230720675     1.0846295445    -0.0108353696
Bq        -3.6225855903     1.1330994605    -0.0231003843
Bq        -3.6220991132     1.1815693764    -0.0353653990
Bq        -3.6216126361     1.2300392924    -0.0476304137
Bq        -3.6211261590     1.2785092084    -0.0598954284
Bq        -3.6206396819     1.3269791243    -0.0721604432
Bq        -3.6201532048     1.3754490403    -0.0844254579
Bq        -3.6196667277     1.4239189563    -0.0966904726
Bq        -3.6191802506     1.4723888722    -0.1089554873
Bq        -3.6186937734     1.5208587882    -0.1212205020
Bq        -3.6182072963     1.5693287042    -0.1334855167
Bq        -3.6177208192     1.6177986202    -0.1457505314
Bq        -3.6172343421     1.6662685361    -0.1580155462
Bq        -3.6167478650     1.7147384521    -0.1702805609
Bq        -3.6162613879     1.7632083681    -0.1825455756
Bq        -3.6157749108     1.8116782840    -0.1948105903
Bq        -3.6152884337     1.8601482000    -0.2070756050
Bq        -3.6148019565     1.9086181160    -0.2193406197
Bq        -3.6143154794     1.9570880319    -0.2316056344
Bq        -3.6138290023     2.0055579479    -0.2438706492
Bq        -3.6133425252     2.0540278639    -0.2561356639
Bq        -3.6128560481     2.1024977798    -0.2684006786
Bq        -3.6123695710     2.1509676958    -0.2806656933
Bq        -3.6118830939     2.1994376118    -0.2929307080
Bq        -3.6113966168     2.2479075278    -0.3051957227
Bq        -3.6109101396     2.2963774437    -0.3174607374
Bq        -3.6104236625     2.3448473597    -0.3297257521
Bq        -3.6099371854     2.3933172757    -0.3419907669
Bq        -3.6094507083     2.4417871916    -0.3542557816
Bq        -3.6089642312     2.4902571076    -0.3665207963
Bq        -3.6084777541     2.5387270236    -0.3787858110
Bq        -3.6079912770     2.5871969395    -0.3910508257
Bq        -3.6075047999     2.6356668555    -0.4033158404
Bq        -3.6070183228     2.6841367715    -0.4155808551
Bq        -3.6065318456     2.7326066875    -0.4278458699
Bq        -3.6060453685     2.7810766034    -0.4401108846
Bq        -3.6055588914     2.8295465194    -0.4523758993
Bq        -3.6050724143     2.8780164354    -0.4646409140
Bq        -3.6045859372     2.9264863513    -0.4769059287
Bq        -3.6040994601     2.9749562673    -0.4891709434
Bq        -3.6036129830     3.0234261833    -0.5014359581
Bq        -3.6031265059     3.0718960992    -0.5137009728
Bq        -3.6026400287     3.1203660152    -0.5259659876
Bq        -3.6021535516     3.1688359312    -0.5382310023
Bq        -3.6016670745     3.2173058471    -0.5504960170
Bq        -3.6011805974     3.2657757631    -0.5627610317
Bq        -3.6006941203     3.3142456791    -0.5750260464
Bq        -3.6002076432     3.3627155951    -0.5872910611
Bq        -3.5997211661     3.4111855110    -0.5995560758
Bq        -3.5992346890     3.4596554270    -0.6118210906
Bq        -3.5987482118     3.5081253430    -0.6240861053
Bq        -3.5982617347     3.5565952589    -0.6363511200
Bq        -3.5977752576     3.6050651749    -0.6486161347
Bq        -3.5972887805     3.6535350909    -0.6608811494
Bq        -3.5968023034     3.7020050068    -0.6731461641
Bq        -3.5963158263     3.7504749228    -0.6854111788
Bq        -3.5958293492     3.7989448388    -0.6976761936
Bq        -3.5953428721     3.8474147548    -0.7099412083
Bq        -3.5948563949     3.8958846707    -0.7222062230
Bq        -3.5943699178     3.9443545867    -0.7344712377
Bq        -3.5938834407     3.9928245027    -0.7467362524
Bq        -3.5933969636     4.0412944186    -0.7590012671
Bq        -3.5929104865     4.0897643346    -0.7712662818
Bq        -3.5924240094     4.1382342506    -0.7835312965
Bq        -3.5919375323     4.1867041665    -0.7957963113
Bq        -3.5914510552     4.2351740825    -0.8080613260
Bq        -3.5909645780     4.2836439985    -0.8203263407
Bq        -3.5896515734    -0.5633475985     0.4081567626
Bq        -3.5891650962    -0.5148776825     0.3958917479
Bq        -3.5886786191    -0.4664077665     0.3836267332
Bq        -3.5881921420    -0.4179378506     0.3713617185
Bq        -3.5877056649    -0.3694679346     0.3590967037
Bq        -3.5872191878    -0.3209980186     0.3468316890
Bq        -3.5867327107    -0.2725281027     0.3345666743
Bq        -3.5862462336    -0.2240581867     0.3223016596
Bq        -3.5857597565    -0.1755882707     0.3100366449
Bq        -3.5852732793    -0.1271183548     0.2977716302
Bq        -3.5847868022    -0.0786484388     0.2855066155
Bq        -3.5843003251    -0.0301785228     0.2732416008
Bq        -3.5838138480     0.0182913932     0.2609765860
Bq        -3.5833273709     0.0667613091     0.2487115713
Bq        -3.5828408938     0.1152312251     0.2364465566
Bq        -3.5823544167     0.1637011411     0.2241815419
Bq        -3.5818679396     0.2121710570     0.2119165272
Bq        -3.5813814624     0.2606409730     0.1996515125
Bq        -3.5808949853     0.3091108890     0.1873864978
Bq        -3.5804085082     0.3575808049     0.1751214830
Bq        -3.5799220311     0.4060507209     0.1628564683
Bq        -3.5794355540     0.4545206369     0.1505914536
Bq        -3.5789490769     0.5029905529     0.1383264389
Bq        -3.5784625998     0.5514604688     0.1260614242
Bq        -3.5779761227     0.5999303848     0.1137964095
Bq        -3.5774896455     0.6484003008     0.1015313948
Bq        -3.5770031684     0.6968702167     0.0892663800
Bq        -3.5765166913     0.7453401327     0.0770013653
Bq        -3.5760302142     0.7938100487     0.0647363506
Bq        -3.5755437371     0.8422799646     0.0524713359
Bq        -3.5750572600     0.8907498806     0.0402063212
Bq        -3.5745707829     0.9392197966     0.0279413065
Bq        -3.5740843058     0.9876897125     0.0156762918
Bq        -3.5735978286     1.0361596285     0.0034112771
Bq        -3.5731113515     1.0846295445    -0.0088537377
Bq        -3.5726248744     1.1330994605    -0.0211187524
Bq        -3.5721383973     1.1815693764    -0.0333837671
Bq        -3.5716519202     1.2300392924    -0.0456487818
Bq        -3.5711654431     1.2785092084    -0.0579137965
Bq        -3.5706789660     1.3269791243    -0.0701788112
Bq        -3.5701924889     1.3754490403    -0.0824438259
Bq        -3.5697060118     1.4239189563    -0.0947088407
Bq        -3.5692195346     1.4723888722    -0.1069738554
Bq        -3.5687330575     1.5208587882    -0.1192388701
Bq        -3.5682465804     1.5693287042    -0.1315038848
Bq        -3.5677601033     1.6177986202    -0.1437688995
Bq        -3.5672736262     1.6662685361    -0.1560339142
Bq        -3.5667871491     1.7147384521    -0.1682989289
Bq        -3.5663006720     1.7632083681    -0.1805639437
Bq        -3.5658141949     1.8116782840    -0.1928289584
Bq        -3.5653277177     1.8601482000    -0.2050939731
Bq        -3.5648412406     1.9086181160    -0.2173589878
Bq        -3.5643547635     1.9570880319    -0.2296240025
Bq        -3.5638682864     2.0055579479    -0.2418890172
Bq        -3.5633818093     2.0540278639    -0.2541540319
Bq        -3.5628953322     2.1024977798    -0.2664190466
Bq        -3.5624088551     2.1509676958    -0.2786840614
Bq        -3.5619223780     2.1994376118    -0.2909490761
Bq        -3.5614359008     2.2479075278    -0.3032140908
Bq        -3.5609494237     2.2963774437    -0.3154791055
Bq        -3.5604629466     2.3448473597    -0.3277441202
Bq        -3.5599764695     2.3933172757    -0.3400091349
Bq        -3.5594899924     2.4417871916    -0.3522741496
Bq        -3.5590035153     2.4902571076    -0.3645391644
Bq        -3.5585170382     2.5387270236    -0.3768041791
Bq        -3.5580305611     2.5871969395    -0.3890691938
Bq        -3.5575440839     2.6356668555    -0.4013342085
Bq        -3.5570576068     2.6841367715    -0.4135992232
Bq        -3.5565711297     2.7326066875    -0.4258642379
Bq        -3.5560846526     2.7810766034    -0.4381292526
Bq        -3.5555981755     2.8295465194    -0.4503942673
Bq        -3.5551116984     2.8780164354    -0.4626592821
Bq        -3.5546252213     2.9264863513    -0.4749242968
Bq        -3.5541387442     2.9749562673    -0.4871893115
Bq        -3.5536522670     3.0234261833    -0.4994543262
Bq        -3.5531657899     3.0718960992    -0.5117193409
Bq        -3.5526793128     3.1203660152    -0.5239843556
Bq        -3.5521928357     3.1688359312    -0.5362493703
Bq        -3.5517063586     3.2173058471    -0.5485143851
Bq        -3.5512198815     3.2657757631    -0.5607793998
Bq        -3.5507334044     3.3142456791    -0.5730444145
Bq        -3.5502469273     3.3627155951    -0.5853094292
Bq        -3.5497604502     3.4111855110    -0.5975744439
Bq        -3.5492739730     3.4596554270    -0.6098394586
Bq        -3.5487874959     3.5081253430    -0.6221044733
Bq        -3.5483010188     3.5565952589    -0.6343694881
Bq        -3.5478145417     3.6050651749    -0.6466345028
Bq        -3.5473280646     3.6535350909    -0.6588995175
Bq        -3.5468415875     3.7020050068    -0.6711645322
Bq        -3.5463551104     3.7504749228    -0.6834295469
Bq        -3.5458686333     3.7989448388    -0.6956945616
Bq        -3.5453821561     3.8474147548    -0.7079595763

1
2
3
4
5
6
7
8
9
10
11
12
13
14
15
16
17
18
19
20
21
22
23
24
25
26
27
28
29
30
31
32
33
34
35
36
37
38
39
40
41
42
43
44
45
46
47
48
49
50
51
52
53
54
55
56
57
58
59
60
61
62
63
64
65
66
67
68
69
70
71
72
73
74
75
76
77
78
79
80
81
82
83
84
85
86
87
88
89
90
91
92
93
94
95
96
97
98
99
100
101
102
103
104
105
106
107
108
109
110
111
112
113
114
115
116
117
118
119
120
121
122
123
124
125
126
127
128
129
130
131
132
133
134
135
136
137
138
139
140
141
142
143
144
145
146
147
148
149
150
151
152
153
154
155
156
157
158
159
160
161
162
163
164
165
166
167
168
169
170
171
172
173
174
175
176
177
178
179
180
181
182
183
184
185
186
187
188
189
190
191
192
193
194
195
196
197
198
199
200
201
202
203
204
205
206
207
208
209
210
211
212
213
214
215
216
217
218
219
220
221
222
223
224
225
226
227
228
229
230
231
232
233
234
235
236

