%nproc=8
%mem=1000MB
# rb3lyp/6-311+g** NMR geom=connectivity

Title

0 1
C    -4.0500558   -0.5771862    0.8136712
H    -5.0263804   -1.0082727    1.0024760
C    -3.9381552    0.6617804    0.2400876
H    -4.8252424    1.2338890   -0.0111295
C    -2.6768410    1.2433246    0.0057578
C    -1.4974121    0.5051527    0.2848253
C    -1.6508332   -0.7338728    0.9404026
H    -0.7713646   -1.2730967    1.2633753
C    -2.8898548   -1.2624035    1.1994307
H    -2.9683706   -2.2124563    1.7152676
C    -2.5773185    2.5963696   -0.4192930
H    -3.4870728    3.1412239   -0.6474055
C    -1.3741895    3.2147896   -0.4364030
H    -1.2997315    4.2742019   -0.6578144
C    -0.1719488    2.4994090   -0.1734588
C    -0.2043917    1.1018437    0.0192689
C     1.0513491    3.2042560   -0.0676222
H     1.0427344    4.2819499   -0.1896997
C     2.1942091    2.5487446    0.2579577
H     3.1168527    3.0912848    0.4334727
C     2.2216473    1.1336562    0.2934990
C     1.0486931    0.3945528    0.0302412
C     3.4483363    0.4614633    0.5573939
H     4.3095794    1.0606054    0.8334846
C     3.5427346   -0.8855926    0.4749463
H     4.4731467   -1.3939704    0.7038822
C     2.4490052   -1.6474447   -0.0196319
C     1.2150704   -1.0057258   -0.3013573
C     0.2531113   -1.7434440   -1.0216591
H    -0.6541356   -1.2535051   -1.3462847
C     0.4494193   -3.0628597   -1.3413779
H    -0.3083162   -3.5944309   -1.9054060
C     1.6251726   -3.7207967   -0.9552541
H     1.7670048   -4.7687404   -1.1927019
C     2.6109872   -3.0144177   -0.3183050
H     3.5525612   -3.4902813   -0.0646367
Bq         1.0232596833     1.8137437167     0.0599809667
Bq        -1.4681467620    -0.6832366678    -0.1808153870
Bq        -1.4677906950    -0.6332970601    -0.1832461894
Bq        -1.4674346281    -0.5833574524    -0.1856769918
Bq        -1.4670785611    -0.5334178447    -0.1881077942
Bq        -1.4667224941    -0.4834782370    -0.1905385966
Bq        -1.4663664271    -0.4335386293    -0.1929693989
Bq        -1.4660103602    -0.3835990216    -0.1954002013
Bq        -1.4656542932    -0.3336594139    -0.1978310037
Bq        -1.4652982262    -0.2837198063    -0.2002618061
Bq        -1.4649421593    -0.2337801986    -0.2026926085
Bq        -1.4645860923    -0.1838405909    -0.2051234109
Bq        -1.4642300253    -0.1339009832    -0.2075542132
Bq        -1.4638739583    -0.0839613755    -0.2099850156
Bq        -1.4635178914    -0.0340217678    -0.2124158180
Bq        -1.4631618244     0.0159178399    -0.2148466204
Bq        -1.4628057574     0.0658574476    -0.2172774228
Bq        -1.4624496905     0.1157970553    -0.2197082252
Bq        -1.4620936235     0.1657366629    -0.2221390275
Bq        -1.4617375565     0.2156762706    -0.2245698299
Bq        -1.4613814896     0.2656158783    -0.2270006323
Bq        -1.4610254226     0.3155554860    -0.2294314347
Bq        -1.4606693556     0.3654950937    -0.2318622371
Bq        -1.4603132886     0.4154347014    -0.2342930395
Bq        -1.4599572217     0.4653743091    -0.2367238418
Bq        -1.4596011547     0.5153139168    -0.2391546442
Bq        -1.4592450877     0.5652535245    -0.2415854466
Bq        -1.4588890208     0.6151931321    -0.2440162490
Bq        -1.4585329538     0.6651327398    -0.2464470514
Bq        -1.4581768868     0.7150723475    -0.2488778538
Bq        -1.4578208198     0.7650119552    -0.2513086561
Bq        -1.4574647529     0.8149515629    -0.2537394585
Bq        -1.4571086859     0.8648911706    -0.2561702609
Bq        -1.4567526189     0.9148307783    -0.2586010633
Bq        -1.4563965520     0.9647703860    -0.2610318657
Bq        -1.4560404850     1.0147099936    -0.2634626681
Bq        -1.4556844180     1.0646496013    -0.2658934704
Bq        -1.4553283510     1.1145892090    -0.2683242728
Bq        -1.4549722841     1.1645288167    -0.2707550752
Bq        -1.4546162171     1.2144684244    -0.2731858776
Bq        -1.4542601501     1.2644080321    -0.2756166800
Bq        -1.4539040832     1.3143476398    -0.2780474824
Bq        -1.4535480162     1.3642872475    -0.2804782847
Bq        -1.4531919492     1.4142268552    -0.2829090871
Bq        -1.4528358823     1.4641664628    -0.2853398895
Bq        -1.4524798153     1.5141060705    -0.2877706919
Bq        -1.4521237483     1.5640456782    -0.2902014943
Bq        -1.4517676813     1.6139852859    -0.2926322966
Bq        -1.4514116144     1.6639248936    -0.2950630990
Bq        -1.4510555474     1.7138645013    -0.2974939014
Bq        -1.4506994804     1.7638041090    -0.2999247038
Bq        -1.4503434135     1.8137437167    -0.3023555062
Bq        -1.4499873465     1.8636833244    -0.3047863086
Bq        -1.4496312795     1.9136229320    -0.3072171109
Bq        -1.4492752125     1.9635625397    -0.3096479133
Bq        -1.4489191456     2.0135021474    -0.3120787157
Bq        -1.4485630786     2.0634417551    -0.3145095181
Bq        -1.4482070116     2.1133813628    -0.3169403205
Bq        -1.4478509447     2.1633209705    -0.3193711229
Bq        -1.4474948777     2.2132605782    -0.3218019252
Bq        -1.4471388107     2.2632001859    -0.3242327276
Bq        -1.4467827437     2.3131397936    -0.3266635300
Bq        -1.4464266768     2.3630794012    -0.3290943324
Bq        -1.4460706098     2.4130190089    -0.3315251348
Bq        -1.4457145428     2.4629586166    -0.3339559372
Bq        -1.4453584759     2.5128982243    -0.3363867395
Bq        -1.4450024089     2.5628378320    -0.3388175419
Bq        -1.4446463419     2.6127774397    -0.3412483443
Bq        -1.4442902750     2.6627170474    -0.3436791467
Bq        -1.4439342080     2.7126566551    -0.3461099491
Bq        -1.4435781410     2.7625962627    -0.3485407515
Bq        -1.4432220740     2.8125358704    -0.3509715538
Bq        -1.4428660071     2.8624754781    -0.3534023562
Bq        -1.4425099401     2.9124150858    -0.3558331586
Bq        -1.4421538731     2.9623546935    -0.3582639610
Bq        -1.4417978062     3.0122943012    -0.3606947634
Bq        -1.4414417392     3.0622339089    -0.3631255658
Bq        -1.4410856722     3.1121735166    -0.3655563681
Bq        -1.4407296052     3.1621131243    -0.3679871705
Bq        -1.4403735383     3.2120527319    -0.3704179729
Bq        -1.4400174713     3.2619923396    -0.3728487753
Bq        -1.4396614043     3.3119319473    -0.3752795777
Bq        -1.4393053374     3.3618715550    -0.3777103801
Bq        -1.4389492704     3.4118111627    -0.3801411824
Bq        -1.4385932034     3.4617507704    -0.3825719848
Bq        -1.4382371364     3.5116903781    -0.3850027872
Bq        -1.4378810695     3.5616299858    -0.3874335896
Bq        -1.4375250025     3.6115695935    -0.3898643920
Bq        -1.4371689355     3.6615092011    -0.3922951944
Bq        -1.4368128686     3.7114488088    -0.3947259967
Bq        -1.4364568016     3.7613884165    -0.3971567991
Bq        -1.4361007346     3.8113280242    -0.3995876015
Bq        -1.4357446677     3.8612676319    -0.4020184039
Bq        -1.4353886007     3.9112072396    -0.4044492063
Bq        -1.4350325337     3.9611468473    -0.4068800087
Bq        -1.4346764667     4.0110864550    -0.4093108110
Bq        -1.4343203998     4.0610260627    -0.4117416134
Bq        -1.4339643328     4.1109656703    -0.4141724158
Bq        -1.4336082658     4.1609052780    -0.4166032182
Bq        -1.4332521989     4.2108448857    -0.4190340206
Bq        -1.4328961319     4.2607844934    -0.4214648230
Bq        -1.4325400649     4.3107241011    -0.4238956253
Bq        -1.4186747001    -0.6832366678    -0.1735686576
Bq        -1.4183186331    -0.6332970601    -0.1759994599
Bq        -1.4179625661    -0.5833574524    -0.1784302623
Bq        -1.4176064991    -0.5334178447    -0.1808610647
Bq        -1.4172504322    -0.4834782370    -0.1832918671
Bq        -1.4168943652    -0.4335386293    -0.1857226695
Bq        -1.4165382982    -0.3835990216    -0.1881534719
Bq        -1.4161822313    -0.3336594139    -0.1905842742
Bq        -1.4158261643    -0.2837198063    -0.1930150766
Bq        -1.4154700973    -0.2337801986    -0.1954458790
Bq        -1.4151140304    -0.1838405909    -0.1978766814
Bq        -1.4147579634    -0.1339009832    -0.2003074838
Bq        -1.4144018964    -0.0839613755    -0.2027382862
Bq        -1.4140458294    -0.0340217678    -0.2051690885
Bq        -1.4136897625     0.0159178399    -0.2075998909
Bq        -1.4133336955     0.0658574476    -0.2100306933
Bq        -1.4129776285     0.1157970553    -0.2124614957
Bq        -1.4126215616     0.1657366629    -0.2148922981
Bq        -1.4122654946     0.2156762706    -0.2173231005
Bq        -1.4119094276     0.2656158783    -0.2197539028
Bq        -1.4115533606     0.3155554860    -0.2221847052
Bq        -1.4111972937     0.3654950937    -0.2246155076
Bq        -1.4108412267     0.4154347014    -0.2270463100
Bq        -1.4104851597     0.4653743091    -0.2294771124
Bq        -1.4101290928     0.5153139168    -0.2319079148
Bq        -1.4097730258     0.5652535245    -0.2343387171
Bq        -1.4094169588     0.6151931321    -0.2367695195
Bq        -1.4090608918     0.6651327398    -0.2392003219
Bq        -1.4087048249     0.7150723475    -0.2416311243
Bq        -1.4083487579     0.7650119552    -0.2440619267
Bq        -1.4079926909     0.8149515629    -0.2464927291
Bq        -1.4076366240     0.8648911706    -0.2489235314
Bq        -1.4072805570     0.9148307783    -0.2513543338
Bq        -1.4069244900     0.9647703860    -0.2537851362
Bq        -1.4065684231     1.0147099936    -0.2562159386
Bq        -1.4062123561     1.0646496013    -0.2586467410
Bq        -1.4058562891     1.1145892090    -0.2610775434
Bq        -1.4055002221     1.1645288167    -0.2635083457
Bq        -1.4051441552     1.2144684244    -0.2659391481
Bq        -1.4047880882     1.2644080321    -0.2683699505
Bq        -1.4044320212     1.3143476398    -0.2708007529
Bq        -1.4040759543     1.3642872475    -0.2732315553
Bq        -1.4037198873     1.4142268552    -0.2756623577
Bq        -1.4033638203     1.4641664628    -0.2780931600
Bq        -1.4030077533     1.5141060705    -0.2805239624
Bq        -1.4026516864     1.5640456782    -0.2829547648
Bq        -1.4022956194     1.6139852859    -0.2853855672
Bq        -1.4019395524     1.6639248936    -0.2878163696
Bq        -1.4015834855     1.7138645013    -0.2902471720
Bq        -1.4012274185     1.7638041090    -0.2926779743
Bq        -1.4008713515     1.8137437167    -0.2951087767
Bq        -1.4005152845     1.8636833244    -0.2975395791
Bq        -1.4001592176     1.9136229320    -0.2999703815
Bq        -1.3998031506     1.9635625397    -0.3024011839
Bq        -1.3994470836     2.0135021474    -0.3048319863
Bq        -1.3990910167     2.0634417551    -0.3072627886
Bq        -1.3987349497     2.1133813628    -0.3096935910
Bq        -1.3983788827     2.1633209705    -0.3121243934
Bq        -1.3980228158     2.2132605782    -0.3145551958
Bq        -1.3976667488     2.2632001859    -0.3169859982
Bq        -1.3973106818     2.3131397936    -0.3194168006
Bq        -1.3969546148     2.3630794012    -0.3218476029
Bq        -1.3965985479     2.4130190089    -0.3242784053
Bq        -1.3962424809     2.4629586166    -0.3267092077
Bq        -1.3958864139     2.5128982243    -0.3291400101
Bq        -1.3955303470     2.5628378320    -0.3315708125
Bq        -1.3951742800     2.6127774397    -0.3340016149
Bq        -1.3948182130     2.6627170474    -0.3364324172
Bq        -1.3944621460     2.7126566551    -0.3388632196
Bq        -1.3941060791     2.7625962627    -0.3412940220
Bq        -1.3937500121     2.8125358704    -0.3437248244
Bq        -1.3933939451     2.8624754781    -0.3461556268
Bq        -1.3930378782     2.9124150858    -0.3485864292
Bq        -1.3926818112     2.9623546935    -0.3510172315
Bq        -1.3923257442     3.0122943012    -0.3534480339
Bq        -1.3919696772     3.0622339089    -0.3558788363
Bq        -1.3916136103     3.1121735166    -0.3583096387
Bq        -1.3912575433     3.1621131243    -0.3607404411
Bq        -1.3909014763     3.2120527319    -0.3631712435
Bq        -1.3905454094     3.2619923396    -0.3656020458
Bq        -1.3901893424     3.3119319473    -0.3680328482
Bq        -1.3898332754     3.3618715550    -0.3704636506
Bq        -1.3894772085     3.4118111627    -0.3728944530
Bq        -1.3891211415     3.4617507704    -0.3753252554
Bq        -1.3887650745     3.5116903781    -0.3777560578
Bq        -1.3884090075     3.5616299858    -0.3801868601
Bq        -1.3880529406     3.6115695935    -0.3826176625
Bq        -1.3876968736     3.6615092011    -0.3850484649
Bq        -1.3873408066     3.7114488088    -0.3874792673
Bq        -1.3869847397     3.7613884165    -0.3899100697
Bq        -1.3866286727     3.8113280242    -0.3923408721
Bq        -1.3862726057     3.8612676319    -0.3947716744
Bq        -1.3859165387     3.9112072396    -0.3972024768
Bq        -1.3855604718     3.9611468473    -0.3996332792
Bq        -1.3852044048     4.0110864550    -0.4020640816
Bq        -1.3848483378     4.0610260627    -0.4044948840
Bq        -1.3844922709     4.1109656703    -0.4069256864
Bq        -1.3841362039     4.1609052780    -0.4093564887

1
2
3
4
5
6
7
8
9
10
11
12
13
14
15
16
17
18
19
20
21
22
23
24
25
26
27
28
29
30
31
32
33
34
35
36
37
38
39
40
41
42
43
44
45
46
47
48
49
50
51
52
53
54
55
56
57
58
59
60
61
62
63
64
65
66
67
68
69
70
71
72
73
74
75
76
77
78
79
80
81
82
83
84
85
86
87
88
89
90
91
92
93
94
95
96
97
98
99
100
101
102
103
104
105
106
107
108
109
110
111
112
113
114
115
116
117
118
119
120
121
122
123
124
125
126
127
128
129
130
131
132
133
134
135
136
137
138
139
140
141
142
143
144
145
146
147
148
149
150
151
152
153
154
155
156
157
158
159
160
161
162
163
164
165
166
167
168
169
170
171
172
173
174
175
176
177
178
179
180
181
182
183
184
185
186
187
188
189
190
191
192
193
194
195
196
197
198
199
200
201
202
203
204
205
206
207
208
209
210
211
212
213
214
215
216
217
218
219
220
221
222
223
224
225
226
227
228
229
230
231
232
233
234
235
236

