%nproc=8
%mem=1000MB
# rb3lyp/6-311+g** NMR geom=connectivity

Title

0 1
C    -4.0500558   -0.5771862    0.8136712
H    -5.0263804   -1.0082727    1.0024760
C    -3.9381552    0.6617804    0.2400876
H    -4.8252424    1.2338890   -0.0111295
C    -2.6768410    1.2433246    0.0057578
C    -1.4974121    0.5051527    0.2848253
C    -1.6508332   -0.7338728    0.9404026
H    -0.7713646   -1.2730967    1.2633753
C    -2.8898548   -1.2624035    1.1994307
H    -2.9683706   -2.2124563    1.7152676
C    -2.5773185    2.5963696   -0.4192930
H    -3.4870728    3.1412239   -0.6474055
C    -1.3741895    3.2147896   -0.4364030
H    -1.2997315    4.2742019   -0.6578144
C    -0.1719488    2.4994090   -0.1734588
C    -0.2043917    1.1018437    0.0192689
C     1.0513491    3.2042560   -0.0676222
H     1.0427344    4.2819499   -0.1896997
C     2.1942091    2.5487446    0.2579577
H     3.1168527    3.0912848    0.4334727
C     2.2216473    1.1336562    0.2934990
C     1.0486931    0.3945528    0.0302412
C     3.4483363    0.4614633    0.5573939
H     4.3095794    1.0606054    0.8334846
C     3.5427346   -0.8855926    0.4749463
H     4.4731467   -1.3939704    0.7038822
C     2.4490052   -1.6474447   -0.0196319
C     1.2150704   -1.0057258   -0.3013573
C     0.2531113   -1.7434440   -1.0216591
H    -0.6541356   -1.2535051   -1.3462847
C     0.4494193   -3.0628597   -1.3413779
H    -0.3083162   -3.5944309   -1.9054060
C     1.6251726   -3.7207967   -0.9552541
H     1.7670048   -4.7687404   -1.1927019
C     2.6109872   -3.0144177   -0.3183050
H     3.5525612   -3.4902813   -0.0646367
Bq         3.5761012659    -1.5449568225     0.3181729581
Bq         3.5742557406    -1.4954654754     0.3250432279
Bq         3.5724102153    -1.4459741284     0.3319134977
Bq         3.5705646901    -1.3964827814     0.3387837674
Bq         3.5687191648    -1.3469914344     0.3456540372
Bq         3.5668736395    -1.2975000874     0.3525243070
Bq         3.5650281143    -1.2480087404     0.3593945768
Bq         3.5631825890    -1.1985173933     0.3662648466
Bq         3.5613370637    -1.1490260463     0.3731351163
Bq         3.5594915385    -1.0995346993     0.3800053861
Bq         3.5576460132    -1.0500433523     0.3868756559
Bq         3.5558004879    -1.0005520053     0.3937459257
Bq         3.5539549627    -0.9510606583     0.4006161955
Bq         3.5521094374    -0.9015693112     0.4074864652
Bq         3.5502639121    -0.8520779642     0.4143567350
Bq         3.5484183869    -0.8025866172     0.4212270048
Bq         3.5465728616    -0.7530952702     0.4280972746
Bq         3.5447273363    -0.7036039232     0.4349675443
Bq         3.5428818111    -0.6541125761     0.4418378141
Bq         3.5410362858    -0.6046212291     0.4487080839
Bq         3.5391907605    -0.5551298821     0.4555783537
Bq         3.5373452353    -0.5056385351     0.4624486235
Bq         3.5354997100    -0.4561471881     0.4693188932
Bq         3.5336541847    -0.4066558411     0.4761891630
Bq         3.5318086595    -0.3571644940     0.4830594328
Bq         3.5299631342    -0.3076731470     0.4899297026
Bq         3.5281176089    -0.2581818000     0.4967999724
Bq         3.5262720836    -0.2086904530     0.5036702421
Bq         3.5244265584    -0.1591991060     0.5105405119
Bq         3.5225810331    -0.1097077589     0.5174107817
Bq         3.5207355078    -0.0602164119     0.5242810515
Bq         3.5188899826    -0.0107250649     0.5311513213
Bq         3.5170444573     0.0387662821     0.5380215910
Bq         3.5151989320     0.0882576291     0.5448918608
Bq         3.5133534068     0.1377489761     0.5517621306
Bq         3.5115078815     0.1872403232     0.5586324004
Bq         3.5096623562     0.2367316702     0.5655026702
Bq         3.5078168310     0.2862230172     0.5723729399
Bq         3.5059713057     0.3357143642     0.5792432097
Bq         3.5041257804     0.3852057112     0.5861134795
Bq         3.5022802552     0.4346970583     0.5929837493
Bq         3.5004347299     0.4841884053     0.5998540191
Bq         3.4985892046     0.5336797523     0.6067242888
Bq         3.4967436794     0.5831710993     0.6135945586
Bq         3.4948981541     0.6326624463     0.6204648284
Bq         3.4930526288     0.6821537933     0.6273350982
Bq         3.4912071036     0.7316451404     0.6342053680
Bq         3.4893615783     0.7811364874     0.6410756377
Bq         3.4875160530     0.8306278344     0.6479459075
Bq         3.4856705278     0.8801191814     0.6548161773
Bq         3.4838250025     0.9296105284     0.6616864471
Bq         3.4819794772     0.9791018754     0.6685567168
Bq         3.4801339520     1.0285932225     0.6754269866
Bq         3.4782884267     1.0780845695     0.6822972564
Bq         3.4764429014     1.1275759165     0.6891675262
Bq         3.4745973762     1.1770672635     0.6960377960
Bq         3.4727518509     1.2265586105     0.7029080657
Bq         3.4709063256     1.2760499576     0.7097783355
Bq         3.4690608003     1.3255413046     0.7166486053
Bq         3.4672152751     1.3750326516     0.7235188751
Bq         3.4653697498     1.4245239986     0.7303891449
Bq         3.4635242245     1.4740153456     0.7372594146
Bq         3.4616786993     1.5235066926     0.7441296844
Bq         3.4598331740     1.5729980397     0.7509999542
Bq         3.4579876487     1.6224893867     0.7578702240
Bq         3.4561421235     1.6719807337     0.7647404938
Bq         3.4542965982     1.7214720807     0.7716107635
Bq         3.4524510729     1.7709634277     0.7784810333
Bq         3.4506055477     1.8204547748     0.7853513031
Bq         3.4487600224     1.8699461218     0.7922215729
Bq         3.4469144971     1.9194374688     0.7990918427
Bq         3.4450689719     1.9689288158     0.8059621124
Bq         3.4432234466     2.0184201628     0.8128323822
Bq         3.4413779213     2.0679115098     0.8197026520
Bq         3.4395323961     2.1174028569     0.8265729218
Bq         3.4376868708     2.1668942039     0.8334431916
Bq         3.4358413455     2.2163855509     0.8403134613
Bq         3.6686819973    -2.7327491509     0.1662578743
Bq         3.6668364721    -2.6832578039     0.1731281441
Bq         3.6649909468    -2.6337664569     0.1799984138
Bq         3.6631454215    -2.5842751098     0.1868686836
Bq         3.6612998963    -2.5347837628     0.1937389534
Bq         3.6594543710    -2.4852924158     0.2006092232
Bq         3.6576088457    -2.4358010688     0.2074794930
Bq         3.6557633204    -2.3863097218     0.2143497627
Bq         3.6539177952    -2.3368183748     0.2212200325
Bq         3.6520722699    -2.2873270277     0.2280903023
Bq         3.6502267446    -2.2378356807     0.2349605721
Bq         3.6483812194    -2.1883443337     0.2418308419
Bq         3.6465356941    -2.1388529867     0.2487011116
Bq         3.6446901688    -2.0893616397     0.2555713814
Bq         3.6428446436    -2.0398702926     0.2624416512
Bq         3.6409991183    -1.9903789456     0.2693119210
Bq         3.6391535930    -1.9408875986     0.2761821908
Bq         3.6373080678    -1.8913962516     0.2830524605
Bq         3.6354625425    -1.8419049046     0.2899227303
Bq         3.6336170172    -1.7924135576     0.2967930001
Bq         3.6317714920    -1.7429222105     0.3036632699
Bq         3.6299259667    -1.6934308635     0.3105335397
Bq         3.6280804414    -1.6439395165     0.3174038094
Bq         3.6262349162    -1.5944481695     0.3242740792
Bq         3.6243893909    -1.5449568225     0.3311443490
Bq         3.6225438656    -1.4954654754     0.3380146188
Bq         3.6206983404    -1.4459741284     0.3448848886
Bq         3.6188528151    -1.3964827814     0.3517551583
Bq         3.6170072898    -1.3469914344     0.3586254281
Bq         3.6151617646    -1.2975000874     0.3654956979
Bq         3.6133162393    -1.2480087404     0.3723659677
Bq         3.6114707140    -1.1985173933     0.3792362374
Bq         3.6096251888    -1.1490260463     0.3861065072
Bq         3.6077796635    -1.0995346993     0.3929767770
Bq         3.6059341382    -1.0500433523     0.3998470468
Bq         3.6040886130    -1.0005520053     0.4067173166
Bq         3.6022430877    -0.9510606583     0.4135875863
Bq         3.6003975624    -0.9015693112     0.4204578561
Bq         3.5985520372    -0.8520779642     0.4273281259
Bq         3.5967065119    -0.8025866172     0.4341983957
Bq         3.5948609866    -0.7530952702     0.4410686655
Bq         3.5930154613    -0.7036039232     0.4479389352
Bq         3.5911699361    -0.6541125761     0.4548092050
Bq         3.5893244108    -0.6046212291     0.4616794748
Bq         3.5874788855    -0.5551298821     0.4685497446
Bq         3.5856333603    -0.5056385351     0.4754200144
Bq         3.5837878350    -0.4561471881     0.4822902841
Bq         3.5819423097    -0.4066558411     0.4891605539
Bq         3.5800967845    -0.3571644940     0.4960308237
Bq         3.5782512592    -0.3076731470     0.5029010935
Bq         3.5764057339    -0.2581818000     0.5097713633
Bq         3.5745602087    -0.2086904530     0.5166416330
Bq         3.5727146834    -0.1591991060     0.5235119028
Bq         3.5708691581    -0.1097077589     0.5303821726
Bq         3.5690236329    -0.0602164119     0.5372524424
Bq         3.5671781076    -0.0107250649     0.5441227122
Bq         3.5653325823     0.0387662821     0.5509929819
Bq         3.5634870571     0.0882576291     0.5578632517
Bq         3.5616415318     0.1377489761     0.5647335215
Bq         3.5597960065     0.1872403232     0.5716037913
Bq         3.5579504813     0.2367316702     0.5784740611
Bq         3.5561049560     0.2862230172     0.5853443308
Bq         3.5542594307     0.3357143642     0.5922146006
Bq         3.5524139055     0.3852057112     0.5990848704
Bq         3.5505683802     0.4346970583     0.6059551402
Bq         3.5487228549     0.4841884053     0.6128254099
Bq         3.5468773297     0.5336797523     0.6196956797
Bq         3.5450318044     0.5831710993     0.6265659495
Bq         3.5431862791     0.6326624463     0.6334362193
Bq         3.5413407539     0.6821537933     0.6403064891
Bq         3.5394952286     0.7316451404     0.6471767588
Bq         3.5376497033     0.7811364874     0.6540470286
Bq         3.5358041780     0.8306278344     0.6609172984
Bq         3.5339586528     0.8801191814     0.6677875682
Bq         3.5321131275     0.9296105284     0.6746578380
Bq         3.5302676022     0.9791018754     0.6815281077
Bq         3.5284220770     1.0285932225     0.6883983775
Bq         3.5265765517     1.0780845695     0.6952686473
Bq         3.5247310264     1.1275759165     0.7021389171
Bq         3.5228855012     1.1770672635     0.7090091869
Bq         3.5210399759     1.2265586105     0.7158794566
Bq         3.5191944506     1.2760499576     0.7227497264
Bq         3.5173489254     1.3255413046     0.7296199962
Bq         3.5155034001     1.3750326516     0.7364902660
Bq         3.5136578748     1.4245239986     0.7433605358
Bq         3.5118123496     1.4740153456     0.7502308055
Bq         3.5099668243     1.5235066926     0.7571010753
Bq         3.5081212990     1.5729980397     0.7639713451
Bq         3.5062757738     1.6224893867     0.7708416149
Bq         3.5044302485     1.6719807337     0.7777118847
Bq         3.5025847232     1.7214720807     0.7845821544
Bq         3.5007391980     1.7709634277     0.7914524242
Bq         3.4988936727     1.8204547748     0.7983226940
Bq         3.4970481474     1.8699461218     0.8051929638
Bq         3.4952026222     1.9194374688     0.8120632336
Bq         3.4933570969     1.9689288158     0.8189335033
Bq         3.4915115716     2.0184201628     0.8258037731
Bq         3.4896660464     2.0679115098     0.8326740429
Bq         3.4878205211     2.1174028569     0.8395443127
Bq         3.4859749958     2.1668942039     0.8464145824
Bq         3.4841294706     2.2163855509     0.8532848522
Bq         3.7169701223    -2.7327491509     0.1792292652
Bq         3.7151245971    -2.6832578039     0.1860995350
Bq         3.7132790718    -2.6337664569     0.1929698047
Bq         3.7114335465    -2.5842751098     0.1998400745
Bq         3.7095880213    -2.5347837628     0.2067103443
Bq         3.7077424960    -2.4852924158     0.2135806141
Bq         3.7058969707    -2.4358010688     0.2204508839
Bq         3.7040514455    -2.3863097218     0.2273211536
Bq         3.7022059202    -2.3368183748     0.2341914234
Bq         3.7003603949    -2.2873270277     0.2410616932
Bq         3.6985148697    -2.2378356807     0.2479319630
Bq         3.6966693444    -2.1883443337     0.2548022328
Bq         3.6948238191    -2.1388529867     0.2616725025
Bq         3.6929782939    -2.0893616397     0.2685427723
Bq         3.6911327686    -2.0398702926     0.2754130421
Bq         3.6892872433    -1.9903789456     0.2822833119
Bq         3.6874417181    -1.9408875986     0.2891535817
Bq         3.6855961928    -1.8913962516     0.2960238514
Bq         3.6837506675    -1.8419049046     0.3028941212
Bq         3.6819051423    -1.7924135576     0.3097643910
Bq         3.6800596170    -1.7429222105     0.3166346608
Bq         3.6782140917    -1.6934308635     0.3235049305

1
2
3
4
5
6
7
8
9
10
11
12
13
14
15
16
17
18
19
20
21
22
23
24
25
26
27
28
29
30
31
32
33
34
35
36
37
38
39
40
41
42
43
44
45
46
47
48
49
50
51
52
53
54
55
56
57
58
59
60
61
62
63
64
65
66
67
68
69
70
71
72
73
74
75
76
77
78
79
80
81
82
83
84
85
86
87
88
89
90
91
92
93
94
95
96
97
98
99
100
101
102
103
104
105
106
107
108
109
110
111
112
113
114
115
116
117
118
119
120
121
122
123
124
125
126
127
128
129
130
131
132
133
134
135
136
137
138
139
140
141
142
143
144
145
146
147
148
149
150
151
152
153
154
155
156
157
158
159
160
161
162
163
164
165
166
167
168
169
170
171
172
173
174
175
176
177
178
179
180
181
182
183
184
185
186
187
188
189
190
191
192
193
194
195
196
197
198
199
200
201
202
203
204
205
206
207
208
209
210
211
212
213
214
215
216
217
218
219
220
221
222
223
224
225
226
227
228
229
230
231
232
233
234
235
236

