%nproc=8
%mem=1000MB
# rb3lyp/6-311+g** NMR geom=connectivity

Title

0 1
C    -4.0500558   -0.5771862    0.8136712
H    -5.0263804   -1.0082727    1.0024760
C    -3.9381552    0.6617804    0.2400876
H    -4.8252424    1.2338890   -0.0111295
C    -2.6768410    1.2433246    0.0057578
C    -1.4974121    0.5051527    0.2848253
C    -1.6508332   -0.7338728    0.9404026
H    -0.7713646   -1.2730967    1.2633753
C    -2.8898548   -1.2624035    1.1994307
H    -2.9683706   -2.2124563    1.7152676
C    -2.5773185    2.5963696   -0.4192930
H    -3.4870728    3.1412239   -0.6474055
C    -1.3741895    3.2147896   -0.4364030
H    -1.2997315    4.2742019   -0.6578144
C    -0.1719488    2.4994090   -0.1734588
C    -0.2043917    1.1018437    0.0192689
C     1.0513491    3.2042560   -0.0676222
H     1.0427344    4.2819499   -0.1896997
C     2.1942091    2.5487446    0.2579577
H     3.1168527    3.0912848    0.4334727
C     2.2216473    1.1336562    0.2934990
C     1.0486931    0.3945528    0.0302412
C     3.4483363    0.4614633    0.5573939
H     4.3095794    1.0606054    0.8334846
C     3.5427346   -0.8855926    0.4749463
H     4.4731467   -1.3939704    0.7038822
C     2.4490052   -1.6474447   -0.0196319
C     1.2150704   -1.0057258   -0.3013573
C     0.2531113   -1.7434440   -1.0216591
H    -0.6541356   -1.2535051   -1.3462847
C     0.4494193   -3.0628597   -1.3413779
H    -0.3083162   -3.5944309   -1.9054060
C     1.6251726   -3.7207967   -0.9552541
H     1.7670048   -4.7687404   -1.1927019
C     2.6109872   -3.0144177   -0.3183050
H     3.5525612   -3.4902813   -0.0646367
Bq         2.5454994603     0.2156762706     0.3624152561
Bq         2.5458555272     0.2656158783     0.3599844537
Bq         2.5462115942     0.3155554860     0.3575536513
Bq         2.5465676612     0.3654950937     0.3551228489
Bq         2.5469237282     0.4154347014     0.3526920466
Bq         2.5472797951     0.4653743091     0.3502612442
Bq         2.5476358621     0.5153139168     0.3478304418
Bq         2.5479919291     0.5652535245     0.3453996394
Bq         2.5483479960     0.6151931321     0.3429688370
Bq         2.5487040630     0.6651327398     0.3405380346
Bq         2.5490601300     0.7150723475     0.3381072323
Bq         2.5494161970     0.7650119552     0.3356764299
Bq         2.5497722639     0.8149515629     0.3332456275
Bq         2.5501283309     0.8648911706     0.3308148251
Bq         2.5504843979     0.9148307783     0.3283840227
Bq         2.5508404648     0.9647703860     0.3259532203
Bq         2.5511965318     1.0147099936     0.3235224180
Bq         2.5515525988     1.0646496013     0.3210916156
Bq         2.5519086658     1.1145892090     0.3186608132
Bq         2.5522647327     1.1645288167     0.3162300108
Bq         2.5526207997     1.2144684244     0.3137992084
Bq         2.5529768667     1.2644080321     0.3113684060
Bq         2.5533329336     1.3143476398     0.3089376037
Bq         2.5536890006     1.3642872475     0.3065068013
Bq         2.5540450676     1.4142268552     0.3040759989
Bq         2.5544011345     1.4641664628     0.3016451965
Bq         2.5547572015     1.5141060705     0.2992143941
Bq         2.5551132685     1.5640456782     0.2967835917
Bq         2.5554693355     1.6139852859     0.2943527894
Bq         2.5558254024     1.6639248936     0.2919219870
Bq         2.5561814694     1.7138645013     0.2894911846
Bq         2.5565375364     1.7638041090     0.2870603822
Bq         2.5568936033     1.8137437167     0.2846295798
Bq         2.5572496703     1.8636833244     0.2821987774
Bq         2.5576057373     1.9136229320     0.2797679751
Bq         2.5579618043     1.9635625397     0.2773371727
Bq         2.5583178712     2.0135021474     0.2749063703
Bq         2.5586739382     2.0634417551     0.2724755679
Bq         2.5590300052     2.1133813628     0.2700447655
Bq         2.5593860721     2.1633209705     0.2676139632
Bq         2.5597421391     2.2132605782     0.2651831608
Bq         2.5600982061     2.2632001859     0.2627523584
Bq         2.5604542731     2.3131397936     0.2603215560
Bq         2.5608103400     2.3630794012     0.2578907536
Bq         2.5611664070     2.4130190089     0.2554599512
Bq         2.5615224740     2.4629586166     0.2530291489
Bq         2.5618785409     2.5128982243     0.2505983465
Bq         2.5622346079     2.5628378320     0.2481675441
Bq         2.5625906749     2.6127774397     0.2457367417
Bq         2.5629467418     2.6627170474     0.2433059393
Bq         2.5633028088     2.7126566551     0.2408751369
Bq         2.5636588758     2.7625962627     0.2384443346
Bq         2.5640149428     2.8125358704     0.2360135322
Bq         2.5643710097     2.8624754781     0.2335827298
Bq         2.5647270767     2.9124150858     0.2311519274
Bq         2.5650831437     2.9623546935     0.2287211250
Bq         2.5654392106     3.0122943012     0.2262903226
Bq         2.5657952776     3.0622339089     0.2238595203
Bq         2.5661513446     3.1121735166     0.2214287179
Bq         2.5665074116     3.1621131243     0.2189979155
Bq         2.5668634785     3.2120527319     0.2165671131
Bq         2.5672195455     3.2619923396     0.2141363107
Bq         2.5675756125     3.3119319473     0.2117055083
Bq         2.5679316794     3.3618715550     0.2092747060
Bq         2.5682877464     3.4118111627     0.2068439036
Bq         2.5686438134     3.4617507704     0.2044131012
Bq         2.5689998804     3.5116903781     0.2019822988
Bq         2.5693559473     3.5616299858     0.1995514964
Bq         2.5697120143     3.6115695935     0.1971206940
Bq         2.5700680813     3.6615092011     0.1946898917
Bq         2.5704241482     3.7114488088     0.1922590893
Bq         2.5707802152     3.7613884165     0.1898282869
Bq         2.5711362822     3.8113280242     0.1873974845
Bq         2.5714923491     3.8612676319     0.1849666821
Bq         2.5718484161     3.9112072396     0.1825358797
Bq         2.5722044831     3.9611468473     0.1801050774
Bq         2.5725605501     4.0110864550     0.1776742750
Bq         2.5729166170     4.0610260627     0.1752434726
Bq         2.5732726840     4.1109656703     0.1728126702
Bq         2.5736287510     4.1609052780     0.1703818678
Bq         2.5739848179     4.2108448857     0.1679510654
Bq         2.5743408849     4.2607844934     0.1655202631
Bq         2.5746969519     4.3107241011     0.1630894607
Bq         2.5885623167    -0.6832366678     0.4134164285
Bq         2.5889183837    -0.6332970601     0.4109856261
Bq         2.5892744507    -0.5833574524     0.4085548237
Bq         2.5896305176    -0.5334178447     0.4061240213
Bq         2.5899865846    -0.4834782370     0.4036932189
Bq         2.5903426516    -0.4335386293     0.4012624165
Bq         2.5906987186    -0.3835990216     0.3988316142
Bq         2.5910547855    -0.3336594139     0.3964008118
Bq         2.5914108525    -0.2837198063     0.3939700094
Bq         2.5917669195    -0.2337801986     0.3915392070
Bq         2.5921229864    -0.1838405909     0.3891084046
Bq         2.5924790534    -0.1339009832     0.3866776022
Bq         2.5928351204    -0.0839613755     0.3842467999
Bq         2.5931911874    -0.0340217678     0.3818159975
Bq         2.5935472543     0.0159178399     0.3793851951
Bq         2.5939033213     0.0658574476     0.3769543927
Bq         2.5942593883     0.1157970553     0.3745235903
Bq         2.5946154552     0.1657366629     0.3720927879
Bq         2.5949715222     0.2156762706     0.3696619856
Bq         2.5953275892     0.2656158783     0.3672311832
Bq         2.5956836562     0.3155554860     0.3648003808
Bq         2.5960397231     0.3654950937     0.3623695784
Bq         2.5963957901     0.4154347014     0.3599387760
Bq         2.5967518571     0.4653743091     0.3575079736
Bq         2.5971079240     0.5153139168     0.3550771713
Bq         2.5974639910     0.5652535245     0.3526463689
Bq         2.5978200580     0.6151931321     0.3502155665
Bq         2.5981761249     0.6651327398     0.3477847641
Bq         2.5985321919     0.7150723475     0.3453539617
Bq         2.5988882589     0.7650119552     0.3429231593
Bq         2.5992443259     0.8149515629     0.3404923570
Bq         2.5996003928     0.8648911706     0.3380615546
Bq         2.5999564598     0.9148307783     0.3356307522
Bq         2.6003125268     0.9647703860     0.3331999498
Bq         2.6006685937     1.0147099936     0.3307691474
Bq         2.6010246607     1.0646496013     0.3283383450
Bq         2.6013807277     1.1145892090     0.3259075427
Bq         2.6017367947     1.1645288167     0.3234767403
Bq         2.6020928616     1.2144684244     0.3210459379
Bq         2.6024489286     1.2644080321     0.3186151355
Bq         2.6028049956     1.3143476398     0.3161843331
Bq         2.6031610625     1.3642872475     0.3137535307
Bq         2.6035171295     1.4142268552     0.3113227284
Bq         2.6038731965     1.4641664628     0.3088919260
Bq         2.6042292635     1.5141060705     0.3064611236
Bq         2.6045853304     1.5640456782     0.3040303212
Bq         2.6049413974     1.6139852859     0.3015995188
Bq         2.6052974644     1.6639248936     0.2991687164
Bq         2.6056535313     1.7138645013     0.2967379141
Bq         2.6060095983     1.7638041090     0.2943071117
Bq         2.6063656653     1.8137437167     0.2918763093
Bq         2.6067217322     1.8636833244     0.2894455069
Bq         2.6070777992     1.9136229320     0.2870147045
Bq         2.6074338662     1.9635625397     0.2845839021
Bq         2.6077899332     2.0135021474     0.2821530998
Bq         2.6081460001     2.0634417551     0.2797222974
Bq         2.6085020671     2.1133813628     0.2772914950
Bq         2.6088581341     2.1633209705     0.2748606926
Bq         2.6092142010     2.2132605782     0.2724298902
Bq         2.6095702680     2.2632001859     0.2699990878
Bq         2.6099263350     2.3131397936     0.2675682855
Bq         2.6102824020     2.3630794012     0.2651374831
Bq         2.6106384689     2.4130190089     0.2627066807
Bq         2.6109945359     2.4629586166     0.2602758783
Bq         2.6113506029     2.5128982243     0.2578450759
Bq         2.6117066698     2.5628378320     0.2554142735
Bq         2.6120627368     2.6127774397     0.2529834712
Bq         2.6124188038     2.6627170474     0.2505526688
Bq         2.6127748708     2.7126566551     0.2481218664
Bq         2.6131309377     2.7625962627     0.2456910640
Bq         2.6134870047     2.8125358704     0.2432602616
Bq         2.6138430717     2.8624754781     0.2408294592
Bq         2.6141991386     2.9124150858     0.2383986569
Bq         2.6145552056     2.9623546935     0.2359678545
Bq         2.6149112726     3.0122943012     0.2335370521
Bq         2.6152673395     3.0622339089     0.2311062497
Bq         2.6156234065     3.1121735166     0.2286754473
Bq         2.6159794735     3.1621131243     0.2262446449
Bq         2.6163355405     3.2120527319     0.2238138426
Bq         2.6166916074     3.2619923396     0.2213830402
Bq         2.6170476744     3.3119319473     0.2189522378
Bq         2.6174037414     3.3618715550     0.2165214354
Bq         2.6177598083     3.4118111627     0.2140906330
Bq         2.6181158753     3.4617507704     0.2116598306
Bq         2.6184719423     3.5116903781     0.2092290283
Bq         2.6188280093     3.5616299858     0.2067982259
Bq         2.6191840762     3.6115695935     0.2043674235
Bq         2.6195401432     3.6615092011     0.2019366211
Bq         2.6198962102     3.7114488088     0.1995058187
Bq         2.6202522771     3.7613884165     0.1970750163
Bq         2.6206083441     3.8113280242     0.1946442140
Bq         2.6209644111     3.8612676319     0.1922134116
Bq         2.6213204781     3.9112072396     0.1897826092
Bq         2.6216765450     3.9611468473     0.1873518068
Bq         2.6220326120     4.0110864550     0.1849210044
Bq         2.6223886790     4.0610260627     0.1824902020
Bq         2.6227447459     4.1109656703     0.1800593997
Bq         2.6231008129     4.1609052780     0.1776285973
Bq         2.6234568799     4.2108448857     0.1751977949
Bq         2.6238129468     4.2607844934     0.1727669925
Bq         2.6241690138     4.3107241011     0.1703361901
Bq         2.6380343787    -0.6832366678     0.4206631579
Bq         2.6383904456    -0.6332970601     0.4182323555
Bq         2.6387465126    -0.5833574524     0.4158015531
Bq         2.6391025796    -0.5334178447     0.4133707508
Bq         2.6394586466    -0.4834782370     0.4109399484
Bq         2.6398147135    -0.4335386293     0.4085091460
Bq         2.6401707805    -0.3835990216     0.4060783436
Bq         2.6405268475    -0.3336594139     0.4036475412
Bq         2.6408829144    -0.2837198063     0.4012167388
Bq         2.6412389814    -0.2337801986     0.3987859365
Bq         2.6415950484    -0.1838405909     0.3963551341
Bq         2.6419511154    -0.1339009832     0.3939243317
Bq         2.6423071823    -0.0839613755     0.3914935293
Bq         2.6426632493    -0.0340217678     0.3890627269
Bq         2.6430193163     0.0159178399     0.3866319245
Bq         2.6433753832     0.0658574476     0.3842011222

1
2
3
4
5
6
7
8
9
10
11
12
13
14
15
16
17
18
19
20
21
22
23
24
25
26
27
28
29
30
31
32
33
34
35
36
37
38
39
40
41
42
43
44
45
46
47
48
49
50
51
52
53
54
55
56
57
58
59
60
61
62
63
64
65
66
67
68
69
70
71
72
73
74
75
76
77
78
79
80
81
82
83
84
85
86
87
88
89
90
91
92
93
94
95
96
97
98
99
100
101
102
103
104
105
106
107
108
109
110
111
112
113
114
115
116
117
118
119
120
121
122
123
124
125
126
127
128
129
130
131
132
133
134
135
136
137
138
139
140
141
142
143
144
145
146
147
148
149
150
151
152
153
154
155
156
157
158
159
160
161
162
163
164
165
166
167
168
169
170
171
172
173
174
175
176
177
178
179
180
181
182
183
184
185
186
187
188
189
190
191
192
193
194
195
196
197
198
199
200
201
202
203
204
205
206
207
208
209
210
211
212
213
214
215
216
217
218
219
220
221
222
223
224
225
226
227
228
229
230
231
232
233
234
235
236

