%nproc=8
%mem=1000MB
# rb3lyp/6-311+g** NMR geom=connectivity

Title

0 1
C    -4.0500558   -0.5771862    0.8136712
H    -5.0263804   -1.0082727    1.0024760
C    -3.9381552    0.6617804    0.2400876
H    -4.8252424    1.2338890   -0.0111295
C    -2.6768410    1.2433246    0.0057578
C    -1.4974121    0.5051527    0.2848253
C    -1.6508332   -0.7338728    0.9404026
H    -0.7713646   -1.2730967    1.2633753
C    -2.8898548   -1.2624035    1.1994307
H    -2.9683706   -2.2124563    1.7152676
C    -2.5773185    2.5963696   -0.4192930
H    -3.4870728    3.1412239   -0.6474055
C    -1.3741895    3.2147896   -0.4364030
H    -1.2997315    4.2742019   -0.6578144
C    -0.1719488    2.4994090   -0.1734588
C    -0.2043917    1.1018437    0.0192689
C     1.0513491    3.2042560   -0.0676222
H     1.0427344    4.2819499   -0.1896997
C     2.1942091    2.5487446    0.2579577
H     3.1168527    3.0912848    0.4334727
C     2.2216473    1.1336562    0.2934990
C     1.0486931    0.3945528    0.0302412
C     3.4483363    0.4614633    0.5573939
H     4.3095794    1.0606054    0.8334846
C     3.5427346   -0.8855926    0.4749463
H     4.4731467   -1.3939704    0.7038822
C     2.4490052   -1.6474447   -0.0196319
C     1.2150704   -1.0057258   -0.3013573
C     0.2531113   -1.7434440   -1.0216591
H    -0.6541356   -1.2535051   -1.3462847
C     0.4494193   -3.0628597   -1.3413779
H    -0.3083162   -3.5944309   -1.9054060
C     1.6251726   -3.7207967   -0.9552541
H     1.7670048   -4.7687404   -1.1927019
C     2.6109872   -3.0144177   -0.3183050
H     3.5525612   -3.4902813   -0.0646367
Bq         0.2672803467     1.7214720807    -0.0845010355
Bq         0.2654348214     1.7709634277    -0.0776307657
Bq         0.2635892961     1.8204547748    -0.0707604959
Bq         0.2617437709     1.8699461218    -0.0638902262
Bq         0.2598982456     1.9194374688    -0.0570199564
Bq         0.2580527203     1.9689288158    -0.0501496866
Bq         0.2562071951     2.0184201628    -0.0432794168
Bq         0.2543616698     2.0679115098    -0.0364091470
Bq         0.2525161445     2.1174028569    -0.0295388773
Bq         0.2506706193     2.1668942039    -0.0226686075
Bq         0.2488250940     2.2163855509    -0.0157983377
Bq         0.4816657458    -2.7327491509    -0.6898539248
Bq         0.4798202205    -2.6832578039    -0.6829836550
Bq         0.4779746953    -2.6337664569    -0.6761133852
Bq         0.4761291700    -2.5842751098    -0.6692431154
Bq         0.4742836447    -2.5347837628    -0.6623728456
Bq         0.4724381194    -2.4852924158    -0.6555025759
Bq         0.4705925942    -2.4358010688    -0.6486323061
Bq         0.4687470689    -2.3863097218    -0.6417620363
Bq         0.4669015436    -2.3368183748    -0.6348917665
Bq         0.4650560184    -2.2873270277    -0.6280214967
Bq         0.4632104931    -2.2378356807    -0.6211512270
Bq         0.4613649678    -2.1883443337    -0.6142809572
Bq         0.4595194426    -2.1388529867    -0.6074106874
Bq         0.4576739173    -2.0893616397    -0.6005404176
Bq         0.4558283920    -2.0398702926    -0.5936701478
Bq         0.4539828668    -1.9903789456    -0.5867998781
Bq         0.4521373415    -1.9408875986    -0.5799296083
Bq         0.4502918162    -1.8913962516    -0.5730593385
Bq         0.4484462910    -1.8419049046    -0.5661890687
Bq         0.4466007657    -1.7924135576    -0.5593187989
Bq         0.4447552404    -1.7429222105    -0.5524485292
Bq         0.4429097152    -1.6934308635    -0.5455782594
Bq         0.4410641899    -1.6439395165    -0.5387079896
Bq         0.4392186646    -1.5944481695    -0.5318377198
Bq         0.4373731394    -1.5449568225    -0.5249674500
Bq         0.4355276141    -1.4954654754    -0.5180971803
Bq         0.4336820888    -1.4459741284    -0.5112269105
Bq         0.4318365636    -1.3964827814    -0.5043566407
Bq         0.4299910383    -1.3469914344    -0.4974863709
Bq         0.4281455130    -1.2975000874    -0.4906161011
Bq         0.4262999878    -1.2480087404    -0.4837458314
Bq         0.4244544625    -1.1985173933    -0.4768755616
Bq         0.4226089372    -1.1490260463    -0.4700052918
Bq         0.4207634120    -1.0995346993    -0.4631350220
Bq         0.4189178867    -1.0500433523    -0.4562647523
Bq         0.4170723614    -1.0005520053    -0.4493944825
Bq         0.4152268362    -0.9510606583    -0.4425242127
Bq         0.4133813109    -0.9015693112    -0.4356539429
Bq         0.4115357856    -0.8520779642    -0.4287836731
Bq         0.4096902603    -0.8025866172    -0.4219134034
Bq         0.4078447351    -0.7530952702    -0.4150431336
Bq         0.4059992098    -0.7036039232    -0.4081728638
Bq         0.4041536845    -0.6541125761    -0.4013025940
Bq         0.4023081593    -0.6046212291    -0.3944323242
Bq         0.4004626340    -0.5551298821    -0.3875620545
Bq         0.3986171087    -0.5056385351    -0.3806917847
Bq         0.3967715835    -0.4561471881    -0.3738215149
Bq         0.3949260582    -0.4066558411    -0.3669512451
Bq         0.3930805329    -0.3571644940    -0.3600809753
Bq         0.3912350077    -0.3076731470    -0.3532107056
Bq         0.3893894824    -0.2581818000    -0.3463404358
Bq         0.3875439571    -0.2086904530    -0.3394701660
Bq         0.3856984319    -0.1591991060    -0.3325998962
Bq         0.3838529066    -0.1097077589    -0.3257296264
Bq         0.3820073813    -0.0602164119    -0.3188593567
Bq         0.3801618561    -0.0107250649    -0.3119890869
Bq         0.3783163308     0.0387662821    -0.3051188171
Bq         0.3764708055     0.0882576291    -0.2982485473
Bq         0.3746252803     0.1377489761    -0.2913782775
Bq         0.3727797550     0.1872403232    -0.2845080078
Bq         0.3709342297     0.2367316702    -0.2776377380
Bq         0.3690887045     0.2862230172    -0.2707674682
Bq         0.3672431792     0.3357143642    -0.2638971984
Bq         0.3653976539     0.3852057112    -0.2570269286
Bq         0.3635521287     0.4346970583    -0.2501566589
Bq         0.3617066034     0.4841884053    -0.2432863891
Bq         0.3598610781     0.5336797523    -0.2364161193
Bq         0.3580155529     0.5831710993    -0.2295458495
Bq         0.3561700276     0.6326624463    -0.2226755797
Bq         0.3543245023     0.6821537933    -0.2158053100
Bq         0.3524789770     0.7316451404    -0.2089350402
Bq         0.3506334518     0.7811364874    -0.2020647704
Bq         0.3487879265     0.8306278344    -0.1951945006
Bq         0.3469424012     0.8801191814    -0.1883242309
Bq         0.3450968760     0.9296105284    -0.1814539611
Bq         0.3432513507     0.9791018754    -0.1745836913
Bq         0.3414058254     1.0285932225    -0.1677134215
Bq         0.3395603002     1.0780845695    -0.1608431517
Bq         0.3377147749     1.1275759165    -0.1539728820
Bq         0.3358692496     1.1770672635    -0.1471026122
Bq         0.3340237244     1.2265586105    -0.1402323424
Bq         0.3321781991     1.2760499576    -0.1333620726
Bq         0.3303326738     1.3255413046    -0.1264918028
Bq         0.3284871486     1.3750326516    -0.1196215331
Bq         0.3266416233     1.4245239986    -0.1127512633
Bq         0.3247960980     1.4740153456    -0.1058809935
Bq         0.3229505728     1.5235066926    -0.0990107237
Bq         0.3211050475     1.5729980397    -0.0921404539
Bq         0.3192595222     1.6224893867    -0.0852701842
Bq         0.3174139970     1.6719807337    -0.0783999144
Bq         0.3155684717     1.7214720807    -0.0715296446
Bq         0.3137229464     1.7709634277    -0.0646593748
Bq         0.3118774212     1.8204547748    -0.0577891050
Bq         0.3100318959     1.8699461218    -0.0509188353
Bq         0.3081863706     1.9194374688    -0.0440485655
Bq         0.3063408454     1.9689288158    -0.0371782957
Bq         0.3044953201     2.0184201628    -0.0303080259
Bq         0.3026497948     2.0679115098    -0.0234377561
Bq         0.3008042696     2.1174028569    -0.0165674864
Bq         0.2989587443     2.1668942039    -0.0096972166
Bq         0.2971132190     2.2163855509    -0.0028269468
Bq         0.5299538708    -2.7327491509    -0.6768825339
Bq         0.5281083455    -2.6832578039    -0.6700122641
Bq         0.5262628203    -2.6337664569    -0.6631419943
Bq         0.5244172950    -2.5842751098    -0.6562717245
Bq         0.5225717697    -2.5347837628    -0.6494014547
Bq         0.5207262445    -2.4852924158    -0.6425311850
Bq         0.5188807192    -2.4358010688    -0.6356609152
Bq         0.5170351939    -2.3863097218    -0.6287906454
Bq         0.5151896687    -2.3368183748    -0.6219203756
Bq         0.5133441434    -2.2873270277    -0.6150501058
Bq         0.5114986181    -2.2378356807    -0.6081798361
Bq         0.5096530929    -2.1883443337    -0.6013095663
Bq         0.5078075676    -2.1388529867    -0.5944392965
Bq         0.5059620423    -2.0893616397    -0.5875690267
Bq         0.5041165171    -2.0398702926    -0.5806987569
Bq         0.5022709918    -1.9903789456    -0.5738284872
Bq         0.5004254665    -1.9408875986    -0.5669582174
Bq         0.4985799413    -1.8913962516    -0.5600879476
Bq         0.4967344160    -1.8419049046    -0.5532176778
Bq         0.4948888907    -1.7924135576    -0.5463474080
Bq         0.4930433655    -1.7429222105    -0.5394771383
Bq         0.4911978402    -1.6934308635    -0.5326068685
Bq         0.4893523149    -1.6439395165    -0.5257365987
Bq         0.4875067897    -1.5944481695    -0.5188663289
Bq         0.4856612644    -1.5449568225    -0.5119960592
Bq         0.4838157391    -1.4954654754    -0.5051257894
Bq         0.4819702139    -1.4459741284    -0.4982555196
Bq         0.4801246886    -1.3964827814    -0.4913852498
Bq         0.4782791633    -1.3469914344    -0.4845149800
Bq         0.4764336380    -1.2975000874    -0.4776447103
Bq         0.4745881128    -1.2480087404    -0.4707744405
Bq         0.4727425875    -1.1985173933    -0.4639041707
Bq         0.4708970622    -1.1490260463    -0.4570339009
Bq         0.4690515370    -1.0995346993    -0.4501636311
Bq         0.4672060117    -1.0500433523    -0.4432933614
Bq         0.4653604864    -1.0005520053    -0.4364230916
Bq         0.4635149612    -0.9510606583    -0.4295528218
Bq         0.4616694359    -0.9015693112    -0.4226825520
Bq         0.4598239106    -0.8520779642    -0.4158122822
Bq         0.4579783854    -0.8025866172    -0.4089420125
Bq         0.4561328601    -0.7530952702    -0.4020717427
Bq         0.4542873348    -0.7036039232    -0.3952014729
Bq         0.4524418096    -0.6541125761    -0.3883312031
Bq         0.4505962843    -0.6046212291    -0.3814609333
Bq         0.4487507590    -0.5551298821    -0.3745906636
Bq         0.4469052338    -0.5056385351    -0.3677203938
Bq         0.4450597085    -0.4561471881    -0.3608501240
Bq         0.4432141832    -0.4066558411    -0.3539798542
Bq         0.4413686580    -0.3571644940    -0.3471095844
Bq         0.4395231327    -0.3076731470    -0.3402393147
Bq         0.4376776074    -0.2581818000    -0.3333690449
Bq         0.4358320822    -0.2086904530    -0.3264987751
Bq         0.4339865569    -0.1591991060    -0.3196285053
Bq         0.4321410316    -0.1097077589    -0.3127582355
Bq         0.4302955064    -0.0602164119    -0.3058879658
Bq         0.4284499811    -0.0107250649    -0.2990176960
Bq         0.4266044558     0.0387662821    -0.2921474262
Bq         0.4247589306     0.0882576291    -0.2852771564
Bq         0.4229134053     0.1377489761    -0.2784068866
Bq         0.4210678800     0.1872403232    -0.2715366169
Bq         0.4192223547     0.2367316702    -0.2646663471
Bq         0.4173768295     0.2862230172    -0.2577960773
Bq         0.4155313042     0.3357143642    -0.2509258075
Bq         0.4136857789     0.3852057112    -0.2440555378
Bq         0.4118402537     0.4346970583    -0.2371852680
Bq         0.4099947284     0.4841884053    -0.2303149982
Bq         0.4081492031     0.5336797523    -0.2234447284
Bq         0.4063036779     0.5831710993    -0.2165744586
Bq         0.4044581526     0.6326624463    -0.2097041889
Bq         0.4026126273     0.6821537933    -0.2028339191
Bq         0.4007671021     0.7316451404    -0.1959636493
Bq         0.3989215768     0.7811364874    -0.1890933795
Bq         0.3970760515     0.8306278344    -0.1822231097
Bq         0.3952305263     0.8801191814    -0.1753528400
Bq         0.3933850010     0.9296105284    -0.1684825702
Bq         0.3915394757     0.9791018754    -0.1616123004
Bq         0.3896939505     1.0285932225    -0.1547420306
Bq         0.3878484252     1.0780845695    -0.1478717608
Bq         0.3860028999     1.1275759165    -0.1410014911
Bq         0.3841573747     1.1770672635    -0.1341312213
Bq         0.3823118494     1.2265586105    -0.1272609515
Bq         0.3804663241     1.2760499576    -0.1203906817
Bq         0.3786207989     1.3255413046    -0.1135204119
Bq         0.3767752736     1.3750326516    -0.1066501422
Bq         0.3749297483     1.4245239986    -0.0997798724
Bq         0.3730842231     1.4740153456    -0.0929096026
Bq         0.3712386978     1.5235066926    -0.0860393328
Bq         0.3693931725     1.5729980397    -0.0791690630

1
2
3
4
5
6
7
8
9
10
11
12
13
14
15
16
17
18
19
20
21
22
23
24
25
26
27
28
29
30
31
32
33
34
35
36
37
38
39
40
41
42
43
44
45
46
47
48
49
50
51
52
53
54
55
56
57
58
59
60
61
62
63
64
65
66
67
68
69
70
71
72
73
74
75
76
77
78
79
80
81
82
83
84
85
86
87
88
89
90
91
92
93
94
95
96
97
98
99
100
101
102
103
104
105
106
107
108
109
110
111
112
113
114
115
116
117
118
119
120
121
122
123
124
125
126
127
128
129
130
131
132
133
134
135
136
137
138
139
140
141
142
143
144
145
146
147
148
149
150
151
152
153
154
155
156
157
158
159
160
161
162
163
164
165
166
167
168
169
170
171
172
173
174
175
176
177
178
179
180
181
182
183
184
185
186
187
188
189
190
191
192
193
194
195
196
197
198
199
200
201
202
203
204
205
206
207
208
209
210
211
212
213
214
215
216
217
218
219
220
221
222
223
224
225
226
227
228
229
230
231
232
233
234
235
236

