%nproc=8
%mem=1000MB
# rb3lyp/6-311+g** NMR geom=connectivity

Title

0 1
C    -4.0500558   -0.5771862    0.8136712
H    -5.0263804   -1.0082727    1.0024760
C    -3.9381552    0.6617804    0.2400876
H    -4.8252424    1.2338890   -0.0111295
C    -2.6768410    1.2433246    0.0057578
C    -1.4974121    0.5051527    0.2848253
C    -1.6508332   -0.7338728    0.9404026
H    -0.7713646   -1.2730967    1.2633753
C    -2.8898548   -1.2624035    1.1994307
H    -2.9683706   -2.2124563    1.7152676
C    -2.5773185    2.5963696   -0.4192930
H    -3.4870728    3.1412239   -0.6474055
C    -1.3741895    3.2147896   -0.4364030
H    -1.2997315    4.2742019   -0.6578144
C    -0.1719488    2.4994090   -0.1734588
C    -0.2043917    1.1018437    0.0192689
C     1.0513491    3.2042560   -0.0676222
H     1.0427344    4.2819499   -0.1896997
C     2.1942091    2.5487446    0.2579577
H     3.1168527    3.0912848    0.4334727
C     2.2216473    1.1336562    0.2934990
C     1.0486931    0.3945528    0.0302412
C     3.4483363    0.4614633    0.5573939
H     4.3095794    1.0606054    0.8334846
C     3.5427346   -0.8855926    0.4749463
H     4.4731467   -1.3939704    0.7038822
C     2.4490052   -1.6474447   -0.0196319
C     1.2150704   -1.0057258   -0.3013573
C     0.2531113   -1.7434440   -1.0216591
H    -0.6541356   -1.2535051   -1.3462847
C     0.4494193   -3.0628597   -1.3413779
H    -0.3083162   -3.5944309   -1.9054060
C     1.6251726   -3.7207967   -0.9552541
H     1.7670048   -4.7687404   -1.1927019
C     2.6109872   -3.0144177   -0.3183050
H     3.5525612   -3.4902813   -0.0646367
Bq         3.0747647630    -1.0500433523     0.2571617469
Bq         3.0729192377    -1.0005520053     0.2640320167
Bq         3.0710737124    -0.9510606583     0.2709022865
Bq         3.0692281872    -0.9015693112     0.2777725563
Bq         3.0673826619    -0.8520779642     0.2846428261
Bq         3.0655371366    -0.8025866172     0.2915130958
Bq         3.0636916114    -0.7530952702     0.2983833656
Bq         3.0618460861    -0.7036039232     0.3052536354
Bq         3.0600005608    -0.6541125761     0.3121239052
Bq         3.0581550356    -0.6046212291     0.3189941750
Bq         3.0563095103    -0.5551298821     0.3258644447
Bq         3.0544639850    -0.5056385351     0.3327347145
Bq         3.0526184598    -0.4561471881     0.3396049843
Bq         3.0507729345    -0.4066558411     0.3464752541
Bq         3.0489274092    -0.3571644940     0.3533455239
Bq         3.0470818839    -0.3076731470     0.3602157936
Bq         3.0452363587    -0.2581818000     0.3670860634
Bq         3.0433908334    -0.2086904530     0.3739563332
Bq         3.0415453081    -0.1591991060     0.3808266030
Bq         3.0396997829    -0.1097077589     0.3876968728
Bq         3.0378542576    -0.0602164119     0.3945671425
Bq         3.0360087323    -0.0107250649     0.4014374123
Bq         3.0341632071     0.0387662821     0.4083076821
Bq         3.0323176818     0.0882576291     0.4151779519
Bq         3.0304721565     0.1377489761     0.4220482217
Bq         3.0286266313     0.1872403232     0.4289184914
Bq         3.0267811060     0.2367316702     0.4357887612
Bq         3.0249355807     0.2862230172     0.4426590310
Bq         3.0230900555     0.3357143642     0.4495293008
Bq         3.0212445302     0.3852057112     0.4563995706
Bq         3.0193990049     0.4346970583     0.4632698403
Bq         3.0175534797     0.4841884053     0.4701401101
Bq         3.0157079544     0.5336797523     0.4770103799
Bq         3.0138624291     0.5831710993     0.4838806497
Bq         3.0120169039     0.6326624463     0.4907509194
Bq         3.0101713786     0.6821537933     0.4976211892
Bq         3.0083258533     0.7316451404     0.5044914590
Bq         3.0064803281     0.7811364874     0.5113617288
Bq         3.0046348028     0.8306278344     0.5182319986
Bq         3.0027892775     0.8801191814     0.5251022683
Bq         3.0009437523     0.9296105284     0.5319725381
Bq         2.9990982270     0.9791018754     0.5388428079
Bq         2.9972527017     1.0285932225     0.5457130777
Bq         2.9954071765     1.0780845695     0.5525833475
Bq         2.9935616512     1.1275759165     0.5594536172
Bq         2.9917161259     1.1770672635     0.5663238870
Bq         2.9898706007     1.2265586105     0.5731941568
Bq         2.9880250754     1.2760499576     0.5800644266
Bq         2.9861795501     1.3255413046     0.5869346964
Bq         2.9843340248     1.3750326516     0.5938049661
Bq         2.9824884996     1.4245239986     0.6006752359
Bq         2.9806429743     1.4740153456     0.6075455057
Bq         2.9787974490     1.5235066926     0.6144157755
Bq         2.9769519238     1.5729980397     0.6212860453
Bq         2.9751063985     1.6224893867     0.6281563150
Bq         2.9732608732     1.6719807337     0.6350265848
Bq         2.9714153480     1.7214720807     0.6418968546
Bq         2.9695698227     1.7709634277     0.6487671244
Bq         2.9677242974     1.8204547748     0.6556373942
Bq         2.9658787722     1.8699461218     0.6625076639
Bq         2.9640332469     1.9194374688     0.6693779337
Bq         2.9621877216     1.9689288158     0.6762482035
Bq         2.9603421964     2.0184201628     0.6831184733
Bq         2.9584966711     2.0679115098     0.6899887431
Bq         2.9566511458     2.1174028569     0.6968590128
Bq         2.9548056206     2.1668942039     0.7037292826
Bq         2.9529600953     2.2163855509     0.7105995524
Bq         3.1858007471    -2.7327491509     0.0365439653
Bq         3.1839552218    -2.6832578039     0.0434142351
Bq         3.1821096966    -2.6337664569     0.0502845049
Bq         3.1802641713    -2.5842751098     0.0571547747
Bq         3.1784186460    -2.5347837628     0.0640250445
Bq         3.1765731208    -2.4852924158     0.0708953142
Bq         3.1747275955    -2.4358010688     0.0777655840
Bq         3.1728820702    -2.3863097218     0.0846358538
Bq         3.1710365449    -2.3368183748     0.0915061236
Bq         3.1691910197    -2.2873270277     0.0983763934
Bq         3.1673454944    -2.2378356807     0.1052466631
Bq         3.1654999691    -2.1883443337     0.1121169329
Bq         3.1636544439    -2.1388529867     0.1189872027
Bq         3.1618089186    -2.0893616397     0.1258574725
Bq         3.1599633933    -2.0398702926     0.1327277423
Bq         3.1581178681    -1.9903789456     0.1395980120
Bq         3.1562723428    -1.9408875986     0.1464682818
Bq         3.1544268175    -1.8913962516     0.1533385516
Bq         3.1525812923    -1.8419049046     0.1602088214
Bq         3.1507357670    -1.7924135576     0.1670790911
Bq         3.1488902417    -1.7429222105     0.1739493609
Bq         3.1470447165    -1.6934308635     0.1808196307
Bq         3.1451991912    -1.6439395165     0.1876899005
Bq         3.1433536659    -1.5944481695     0.1945601703
Bq         3.1415081407    -1.5449568225     0.2014304400
Bq         3.1396626154    -1.4954654754     0.2083007098
Bq         3.1378170901    -1.4459741284     0.2151709796
Bq         3.1359715649    -1.3964827814     0.2220412494
Bq         3.1341260396    -1.3469914344     0.2289115192
Bq         3.1322805143    -1.2975000874     0.2357817889
Bq         3.1304349891    -1.2480087404     0.2426520587
Bq         3.1285894638    -1.1985173933     0.2495223285
Bq         3.1267439385    -1.1490260463     0.2563925983
Bq         3.1248984133    -1.0995346993     0.2632628681
Bq         3.1230528880    -1.0500433523     0.2701331378
Bq         3.1212073627    -1.0005520053     0.2770034076
Bq         3.1193618375    -0.9510606583     0.2838736774
Bq         3.1175163122    -0.9015693112     0.2907439472
Bq         3.1156707869    -0.8520779642     0.2976142170
Bq         3.1138252617    -0.8025866172     0.3044844867
Bq         3.1119797364    -0.7530952702     0.3113547565
Bq         3.1101342111    -0.7036039232     0.3182250263
Bq         3.1082886858    -0.6541125761     0.3250952961
Bq         3.1064431606    -0.6046212291     0.3319655659
Bq         3.1045976353    -0.5551298821     0.3388358356
Bq         3.1027521100    -0.5056385351     0.3457061054
Bq         3.1009065848    -0.4561471881     0.3525763752
Bq         3.0990610595    -0.4066558411     0.3594466450
Bq         3.0972155342    -0.3571644940     0.3663169148
Bq         3.0953700090    -0.3076731470     0.3731871845
Bq         3.0935244837    -0.2581818000     0.3800574543
Bq         3.0916789584    -0.2086904530     0.3869277241
Bq         3.0898334332    -0.1591991060     0.3937979939
Bq         3.0879879079    -0.1097077589     0.4006682637
Bq         3.0861423826    -0.0602164119     0.4075385334
Bq         3.0842968574    -0.0107250649     0.4144088032
Bq         3.0824513321     0.0387662821     0.4212790730
Bq         3.0806058068     0.0882576291     0.4281493428
Bq         3.0787602816     0.1377489761     0.4350196125
Bq         3.0769147563     0.1872403232     0.4418898823
Bq         3.0750692310     0.2367316702     0.4487601521
Bq         3.0732237058     0.2862230172     0.4556304219
Bq         3.0713781805     0.3357143642     0.4625006917
Bq         3.0695326552     0.3852057112     0.4693709614
Bq         3.0676871300     0.4346970583     0.4762412312
Bq         3.0658416047     0.4841884053     0.4831115010
Bq         3.0639960794     0.5336797523     0.4899817708
Bq         3.0621505542     0.5831710993     0.4968520406
Bq         3.0603050289     0.6326624463     0.5037223103
Bq         3.0584595036     0.6821537933     0.5105925801
Bq         3.0566139784     0.7316451404     0.5174628499
Bq         3.0547684531     0.7811364874     0.5243331197
Bq         3.0529229278     0.8306278344     0.5312033895
Bq         3.0510774025     0.8801191814     0.5380736592
Bq         3.0492318773     0.9296105284     0.5449439290
Bq         3.0473863520     0.9791018754     0.5518141988
Bq         3.0455408267     1.0285932225     0.5586844686
Bq         3.0436953015     1.0780845695     0.5655547384
Bq         3.0418497762     1.1275759165     0.5724250081
Bq         3.0400042509     1.1770672635     0.5792952779
Bq         3.0381587257     1.2265586105     0.5861655477
Bq         3.0363132004     1.2760499576     0.5930358175
Bq         3.0344676751     1.3255413046     0.5999060873
Bq         3.0326221499     1.3750326516     0.6067763570
Bq         3.0307766246     1.4245239986     0.6136466268
Bq         3.0289310993     1.4740153456     0.6205168966
Bq         3.0270855741     1.5235066926     0.6273871664
Bq         3.0252400488     1.5729980397     0.6342574362
Bq         3.0233945235     1.6224893867     0.6411277059
Bq         3.0215489983     1.6719807337     0.6479979757
Bq         3.0197034730     1.7214720807     0.6548682455
Bq         3.0178579477     1.7709634277     0.6617385153
Bq         3.0160124225     1.8204547748     0.6686087850
Bq         3.0141668972     1.8699461218     0.6754790548
Bq         3.0123213719     1.9194374688     0.6823493246
Bq         3.0104758467     1.9689288158     0.6892195944
Bq         3.0086303214     2.0184201628     0.6960898642
Bq         3.0067847961     2.0679115098     0.7029601339
Bq         3.0049392709     2.1174028569     0.7098304037
Bq         3.0030937456     2.1668942039     0.7167006735
Bq         3.0012482203     2.2163855509     0.7235709433
Bq         3.2340888721    -2.7327491509     0.0495153562
Bq         3.2322433468    -2.6832578039     0.0563856260
Bq         3.2303978216    -2.6337664569     0.0632558958
Bq         3.2285522963    -2.5842751098     0.0701261656
Bq         3.2267067710    -2.5347837628     0.0769964354
Bq         3.2248612458    -2.4852924158     0.0838667051
Bq         3.2230157205    -2.4358010688     0.0907369749
Bq         3.2211701952    -2.3863097218     0.0976072447
Bq         3.2193246700    -2.3368183748     0.1044775145
Bq         3.2174791447    -2.2873270277     0.1113477842
Bq         3.2156336194    -2.2378356807     0.1182180540
Bq         3.2137880942    -2.1883443337     0.1250883238
Bq         3.2119425689    -2.1388529867     0.1319585936
Bq         3.2100970436    -2.0893616397     0.1388288634
Bq         3.2082515184    -2.0398702926     0.1456991331
Bq         3.2064059931    -1.9903789456     0.1525694029
Bq         3.2045604678    -1.9408875986     0.1594396727
Bq         3.2027149426    -1.8913962516     0.1663099425
Bq         3.2008694173    -1.8419049046     0.1731802123
Bq         3.1990238920    -1.7924135576     0.1800504820
Bq         3.1971783668    -1.7429222105     0.1869207518
Bq         3.1953328415    -1.6934308635     0.1937910216
Bq         3.1934873162    -1.6439395165     0.2006612914
Bq         3.1916417910    -1.5944481695     0.2075315612
Bq         3.1897962657    -1.5449568225     0.2144018309
Bq         3.1879507404    -1.4954654754     0.2212721007
Bq         3.1861052152    -1.4459741284     0.2281423705
Bq         3.1842596899    -1.3964827814     0.2350126403
Bq         3.1824141646    -1.3469914344     0.2418829101
Bq         3.1805686394    -1.2975000874     0.2487531798
Bq         3.1787231141    -1.2480087404     0.2556234496
Bq         3.1768775888    -1.1985173933     0.2624937194

1
2
3
4
5
6
7
8
9
10
11
12
13
14
15
16
17
18
19
20
21
22
23
24
25
26
27
28
29
30
31
32
33
34
35
36
37
38
39
40
41
42
43
44
45
46
47
48
49
50
51
52
53
54
55
56
57
58
59
60
61
62
63
64
65
66
67
68
69
70
71
72
73
74
75
76
77
78
79
80
81
82
83
84
85
86
87
88
89
90
91
92
93
94
95
96
97
98
99
100
101
102
103
104
105
106
107
108
109
110
111
112
113
114
115
116
117
118
119
120
121
122
123
124
125
126
127
128
129
130
131
132
133
134
135
136
137
138
139
140
141
142
143
144
145
146
147
148
149
150
151
152
153
154
155
156
157
158
159
160
161
162
163
164
165
166
167
168
169
170
171
172
173
174
175
176
177
178
179
180
181
182
183
184
185
186
187
188
189
190
191
192
193
194
195
196
197
198
199
200
201
202
203
204
205
206
207
208
209
210
211
212
213
214
215
216
217
218
219
220
221
222
223
224
225
226
227
228
229
230
231
232
233
234
235
236

