%nproc=8
%mem=1000MB
# rb3lyp/6-311+g** NMR geom=connectivity

Title

0 1
C    -4.0500558   -0.5771862    0.8136712
H    -5.0263804   -1.0082727    1.0024760
C    -3.9381552    0.6617804    0.2400876
H    -4.8252424    1.2338890   -0.0111295
C    -2.6768410    1.2433246    0.0057578
C    -1.4974121    0.5051527    0.2848253
C    -1.6508332   -0.7338728    0.9404026
H    -0.7713646   -1.2730967    1.2633753
C    -2.8898548   -1.2624035    1.1994307
H    -2.9683706   -2.2124563    1.7152676
C    -2.5773185    2.5963696   -0.4192930
H    -3.4870728    3.1412239   -0.6474055
C    -1.3741895    3.2147896   -0.4364030
H    -1.2997315    4.2742019   -0.6578144
C    -0.1719488    2.4994090   -0.1734588
C    -0.2043917    1.1018437    0.0192689
C     1.0513491    3.2042560   -0.0676222
H     1.0427344    4.2819499   -0.1896997
C     2.1942091    2.5487446    0.2579577
H     3.1168527    3.0912848    0.4334727
C     2.2216473    1.1336562    0.2934990
C     1.0486931    0.3945528    0.0302412
C     3.4483363    0.4614633    0.5573939
H     4.3095794    1.0606054    0.8334846
C     3.5427346   -0.8855926    0.4749463
H     4.4731467   -1.3939704    0.7038822
C     2.4490052   -1.6474447   -0.0196319
C     1.2150704   -1.0057258   -0.3013573
C     0.2531113   -1.7434440   -1.0216591
H    -0.6541356   -1.2535051   -1.3462847
C     0.4494193   -3.0628597   -1.3413779
H    -0.3083162   -3.5944309   -1.9054060
C     1.6251726   -3.7207967   -0.9552541
H     1.7670048   -4.7687404   -1.1927019
C     2.6109872   -3.0144177   -0.3183050
H     3.5525612   -3.4902813   -0.0646367
Bq         3.2252661370    -4.1008551222    -0.3721117747
Bq         3.2197629003    -4.0526586308    -0.3599951495
Bq         3.2142596636    -4.0044621394    -0.3478785243
Bq         3.2087564270    -3.9562656481    -0.3357618991
Bq         3.2032531903    -3.9080691567    -0.3236452738
Bq         3.1977499536    -3.8598726654    -0.3115286486
Bq         3.1922467169    -3.8116761740    -0.2994120234
Bq         3.1867434802    -3.7634796827    -0.2872953981
Bq         3.1812402435    -3.7152831913    -0.2751787729
Bq         3.1757370068    -3.6670866999    -0.2630621477
Bq         3.1702337702    -3.6188902086    -0.2509455225
Bq         3.1647305335    -3.5706937172    -0.2388288972
Bq         3.1592272968    -3.5224972259    -0.2267122720
Bq         3.1537240601    -3.4743007345    -0.2145956468
Bq         3.1482208234    -3.4261042432    -0.2024790215
Bq         3.1427175867    -3.3779077518    -0.1903623963
Bq         3.1372143500    -3.3297112605    -0.1782457711
Bq         3.1317111134    -3.2815147691    -0.1661291459
Bq         3.1262078767    -3.2333182777    -0.1540125206
Bq         3.1207046400    -3.1851217864    -0.1418958954
Bq         3.1152014033    -3.1369252950    -0.1297792702
Bq         3.1096981666    -3.0887288037    -0.1176626449
Bq         3.1041949299    -3.0405323123    -0.1055460197
Bq         3.0986916932    -2.9923358210    -0.0934293945
Bq         3.0931884566    -2.9441393296    -0.0813127693
Bq         3.0876852199    -2.8959428383    -0.0691961440
Bq         3.0821819832    -2.8477463469    -0.0570795188
Bq         3.0766787465    -2.7995498555    -0.0449628936
Bq         3.0711755098    -2.7513533642    -0.0328462683
Bq         3.0656722731    -2.7031568728    -0.0207296431
Bq         3.0601690364    -2.6549603815    -0.0086130179
Bq         3.0546657997    -2.6067638901     0.0035036074
Bq         3.0491625631    -2.5585673988     0.0156202326
Bq         3.0436593264    -2.5103709074     0.0277368578
Bq         3.0381560897    -2.4621744160     0.0398534830
Bq         3.0326528530    -2.4139779247     0.0519701083
Bq         3.0271496163    -2.3657814333     0.0640867335
Bq         3.0216463796    -2.3175849420     0.0762033587
Bq         3.0161431429    -2.2693884506     0.0883199840
Bq         3.0106399063    -2.2211919593     0.1004366092
Bq         3.0051366696    -2.1729954679     0.1125532344
Bq         2.9996334329    -2.1247989766     0.1246698596
Bq         2.9941301962    -2.0766024852     0.1367864849
Bq         2.9886269595    -2.0284059938     0.1489031101
Bq         2.9831237228    -1.9802095025     0.1610197353
Bq         2.9776204861    -1.9320130111     0.1731363606
Bq         2.9721172495    -1.8838165198     0.1852529858
Bq         2.9666140128    -1.8356200284     0.1973696110
Bq         2.9611107761    -1.7874235371     0.2094862362
Bq         2.9556075394    -1.7392270457     0.2216028615
Bq         2.9501043027    -1.6910305543     0.2337194867
Bq         2.9446010660    -1.6428340630     0.2458361119
Bq         2.9390978293    -1.5946375716     0.2579527372
Bq         2.9335945927    -1.5464410803     0.2700693624
Bq         2.9280913560    -1.4982445889     0.2821859876
Bq         2.9225881193    -1.4500480976     0.2943026128
Bq         2.9170848826    -1.4018516062     0.3064192381
Bq         2.9115816459    -1.3536551149     0.3185358633
Bq         2.9060784092    -1.3054586235     0.3306524885
Bq         2.9005751725    -1.2572621321     0.3427691138
Bq         2.8950719359    -1.2090656408     0.3548857390
Bq         2.8895686992    -1.1608691494     0.3670023642
Bq         2.8840654625    -1.1126726581     0.3791189895
Bq         2.8785622258    -1.0644761667     0.3912356147
Bq         2.8730589891    -1.0162796754     0.4033522399
Bq         2.8675557524    -0.9680831840     0.4154688651
Bq         2.8620525157    -0.9198866927     0.4275854904
Bq         2.8565492791    -0.8716902013     0.4397021156
Bq         2.8510460424    -0.8234937099     0.4518187408
Bq         2.8455428057    -0.7752972186     0.4639353661
Bq         2.8400395690    -0.7271007272     0.4760519913
Bq         2.8345363323    -0.6789042359     0.4881686165
Bq         2.8290330956    -0.6307077445     0.5002852417
Bq         2.8235298589    -0.5825112532     0.5124018670
Bq         2.8180266222    -0.5343147618     0.5245184922
Bq         2.8125233856    -0.4861182704     0.5366351174
Bq         2.8070201489    -0.4379217791     0.5487517427
Bq         2.8015169122    -0.3897252877     0.5608683679
Bq         2.7960136755    -0.3415287964     0.5729849931
Bq         2.7905104388    -0.2933323050     0.5851016183
Bq         2.7850072021    -0.2451358137     0.5972182436
Bq         2.7795039654    -0.1969393223     0.6093348688
Bq         2.7740007288    -0.1487428310     0.6214514940
Bq         2.7684974921    -0.1005463396     0.6335681193
Bq         2.7629942554    -0.0523498482     0.6456847445
Bq         2.7574910187    -0.0041533569     0.6578013697
Bq         2.7519877820     0.0440431345     0.6699179949
Bq         3.3478358873    -4.7756060011    -0.5210678341
Bq         3.3423326506    -4.7274095098    -0.5089512089
Bq         3.3368294139    -4.6792130184    -0.4968345837
Bq         3.3313261772    -4.6310165271    -0.4847179585
Bq         3.3258229405    -4.5828200357    -0.4726013332
Bq         3.3203197038    -4.5346235444    -0.4604847080
Bq         3.3148164672    -4.4864270530    -0.4483680828
Bq         3.3093132305    -4.4382305616    -0.4362514575
Bq         3.3038099938    -4.3900340703    -0.4241348323
Bq         3.2983067571    -4.3418375789    -0.4120182071
Bq         3.2928035204    -4.2936410876    -0.3999015818
Bq         3.2873002837    -4.2454445962    -0.3877849566
Bq         3.2817970470    -4.1972481049    -0.3756683314
Bq         3.2762938104    -4.1490516135    -0.3635517062
Bq         3.2707905737    -4.1008551222    -0.3514350809
Bq         3.2652873370    -4.0526586308    -0.3393184557
Bq         3.2597841003    -4.0044621394    -0.3272018305
Bq         3.2542808636    -3.9562656481    -0.3150852052
Bq         3.2487776269    -3.9080691567    -0.3029685800
Bq         3.2432743902    -3.8598726654    -0.2908519548
Bq         3.2377711536    -3.8116761740    -0.2787353296
Bq         3.2322679169    -3.7634796827    -0.2666187043
Bq         3.2267646802    -3.7152831913    -0.2545020791
Bq         3.2212614435    -3.6670866999    -0.2423854539
Bq         3.2157582068    -3.6188902086    -0.2302688286
Bq         3.2102549701    -3.5706937172    -0.2181522034
Bq         3.2047517334    -3.5224972259    -0.2060355782
Bq         3.1992484968    -3.4743007345    -0.1939189530
Bq         3.1937452601    -3.4261042432    -0.1818023277
Bq         3.1882420234    -3.3779077518    -0.1696857025
Bq         3.1827387867    -3.3297112605    -0.1575690773
Bq         3.1772355500    -3.2815147691    -0.1454524520
Bq         3.1717323133    -3.2333182777    -0.1333358268
Bq         3.1662290766    -3.1851217864    -0.1212192016
Bq         3.1607258400    -3.1369252950    -0.1091025764
Bq         3.1552226033    -3.0887288037    -0.0969859511
Bq         3.1497193666    -3.0405323123    -0.0848693259
Bq         3.1442161299    -2.9923358210    -0.0727527007
Bq         3.1387128932    -2.9441393296    -0.0606360754
Bq         3.1332096565    -2.8959428383    -0.0485194502
Bq         3.1277064198    -2.8477463469    -0.0364028250
Bq         3.1222031832    -2.7995498555    -0.0242861998
Bq         3.1166999465    -2.7513533642    -0.0121695745
Bq         3.1111967098    -2.7031568728    -0.0000529493
Bq         3.1056934731    -2.6549603815     0.0120636759
Bq         3.1001902364    -2.6067638901     0.0241803012
Bq         3.0946869997    -2.5585673988     0.0362969264
Bq         3.0891837630    -2.5103709074     0.0484135516
Bq         3.0836805263    -2.4621744160     0.0605301769
Bq         3.0781772897    -2.4139779247     0.0726468021
Bq         3.0726740530    -2.3657814333     0.0847634273
Bq         3.0671708163    -2.3175849420     0.0968800525
Bq         3.0616675796    -2.2693884506     0.1089966778
Bq         3.0561643429    -2.2211919593     0.1211133030
Bq         3.0506611062    -2.1729954679     0.1332299282
Bq         3.0451578695    -2.1247989766     0.1453465535
Bq         3.0396546329    -2.0766024852     0.1574631787
Bq         3.0341513962    -2.0284059938     0.1695798039
Bq         3.0286481595    -1.9802095025     0.1816964291
Bq         3.0231449228    -1.9320130111     0.1938130544
Bq         3.0176416861    -1.8838165198     0.2059296796
Bq         3.0121384494    -1.8356200284     0.2180463048
Bq         3.0066352127    -1.7874235371     0.2301629301
Bq         3.0011319761    -1.7392270457     0.2422795553
Bq         2.9956287394    -1.6910305543     0.2543961805
Bq         2.9901255027    -1.6428340630     0.2665128057
Bq         2.9846222660    -1.5946375716     0.2786294310
Bq         2.9791190293    -1.5464410803     0.2907460562
Bq         2.9736157926    -1.4982445889     0.3028626814
Bq         2.9681125559    -1.4500480976     0.3149793067
Bq         2.9626093193    -1.4018516062     0.3270959319
Bq         2.9571060826    -1.3536551149     0.3392125571
Bq         2.9516028459    -1.3054586235     0.3513291823
Bq         2.9460996092    -1.2572621321     0.3634458076
Bq         2.9405963725    -1.2090656408     0.3755624328
Bq         2.9350931358    -1.1608691494     0.3876790580
Bq         2.9295898991    -1.1126726581     0.3997956833
Bq         2.9240866625    -1.0644761667     0.4119123085
Bq         2.9185834258    -1.0162796754     0.4240289337
Bq         2.9130801891    -0.9680831840     0.4361455590
Bq         2.9075769524    -0.9198866927     0.4482621842
Bq         2.9020737157    -0.8716902013     0.4603788094
Bq         2.8965704790    -0.8234937099     0.4724954346
Bq         2.8910672423    -0.7752972186     0.4846120599
Bq         2.8855640057    -0.7271007272     0.4967286851
Bq         2.8800607690    -0.6789042359     0.5088453103
Bq         2.8745575323    -0.6307077445     0.5209619356
Bq         2.8690542956    -0.5825112532     0.5330785608
Bq         2.8635510589    -0.5343147618     0.5451951860
Bq         2.8580478222    -0.4861182704     0.5573118112
Bq         2.8525445855    -0.4379217791     0.5694284365
Bq         2.8470413488    -0.3897252877     0.5815450617
Bq         2.8415381122    -0.3415287964     0.5936616869
Bq         2.8360348755    -0.2933323050     0.6057783122
Bq         2.8305316388    -0.2451358137     0.6178949374
Bq         2.8250284021    -0.1969393223     0.6300115626
Bq         2.8195251654    -0.1487428310     0.6421281878
Bq         2.8140219287    -0.1005463396     0.6542448131
Bq         2.8085186920    -0.0523498482     0.6663614383
Bq         2.8030154554    -0.0041533569     0.6784780635
Bq         2.7975122187     0.0440431345     0.6905946888
Bq         3.3933603239    -4.7756060011    -0.5003911403
Bq         3.3878570872    -4.7274095098    -0.4882745151
Bq         3.3823538506    -4.6792130184    -0.4761578899
Bq         3.3768506139    -4.6310165271    -0.4640412646
Bq         3.3713473772    -4.5828200357    -0.4519246394
Bq         3.3658441405    -4.5346235444    -0.4398080142
Bq         3.3603409038    -4.4864270530    -0.4276913890
Bq         3.3548376671    -4.4382305616    -0.4155747637
Bq         3.3493344304    -4.3900340703    -0.4034581385
Bq         3.3438311938    -4.3418375789    -0.3913415133
Bq         3.3383279571    -4.2936410876    -0.3792248880
Bq         3.3328247204    -4.2454445962    -0.3671082628

1
2
3
4
5
6
7
8
9
10
11
12
13
14
15
16
17
18
19
20
21
22
23
24
25
26
27
28
29
30
31
32
33
34
35
36
37
38
39
40
41
42
43
44
45
46
47
48
49
50
51
52
53
54
55
56
57
58
59
60
61
62
63
64
65
66
67
68
69
70
71
72
73
74
75
76
77
78
79
80
81
82
83
84
85
86
87
88
89
90
91
92
93
94
95
96
97
98
99
100
101
102
103
104
105
106
107
108
109
110
111
112
113
114
115
116
117
118
119
120
121
122
123
124
125
126
127
128
129
130
131
132
133
134
135
136
137
138
139
140
141
142
143
144
145
146
147
148
149
150
151
152
153
154
155
156
157
158
159
160
161
162
163
164
165
166
167
168
169
170
171
172
173
174
175
176
177
178
179
180
181
182
183
184
185
186
187
188
189
190
191
192
193
194
195
196
197
198
199
200
201
202
203
204
205
206
207
208
209
210
211
212
213
214
215
216
217
218
219
220
221
222
223
224
225
226
227
228
229
230
231
232
233
234
235
236

