%nproc=8
%mem=1000MB
# rb3lyp/6-311+g** NMR geom=connectivity

Title

0 1
C    -4.0500558   -0.5771862    0.8136712
H    -5.0263804   -1.0082727    1.0024760
C    -3.9381552    0.6617804    0.2400876
H    -4.8252424    1.2338890   -0.0111295
C    -2.6768410    1.2433246    0.0057578
C    -1.4974121    0.5051527    0.2848253
C    -1.6508332   -0.7338728    0.9404026
H    -0.7713646   -1.2730967    1.2633753
C    -2.8898548   -1.2624035    1.1994307
H    -2.9683706   -2.2124563    1.7152676
C    -2.5773185    2.5963696   -0.4192930
H    -3.4870728    3.1412239   -0.6474055
C    -1.3741895    3.2147896   -0.4364030
H    -1.2997315    4.2742019   -0.6578144
C    -0.1719488    2.4994090   -0.1734588
C    -0.2043917    1.1018437    0.0192689
C     1.0513491    3.2042560   -0.0676222
H     1.0427344    4.2819499   -0.1896997
C     2.1942091    2.5487446    0.2579577
H     3.1168527    3.0912848    0.4334727
C     2.2216473    1.1336562    0.2934990
C     1.0486931    0.3945528    0.0302412
C     3.4483363    0.4614633    0.5573939
H     4.3095794    1.0606054    0.8334846
C     3.5427346   -0.8855926    0.4749463
H     4.4731467   -1.3939704    0.7038822
C     2.4490052   -1.6474447   -0.0196319
C     1.2150704   -1.0057258   -0.3013573
C     0.2531113   -1.7434440   -1.0216591
H    -0.6541356   -1.2535051   -1.3462847
C     0.4494193   -3.0628597   -1.3413779
H    -0.3083162   -3.5944309   -1.9054060
C     1.6251726   -3.7207967   -0.9552541
H     1.7670048   -4.7687404   -1.1927019
C     2.6109872   -3.0144177   -0.3183050
H     3.5525612   -3.4902813   -0.0646367
Bq        -2.1350602315    -0.6575605487     0.8876277095
Bq        -2.1349747654    -0.6125348524     0.8658865190
Bq        -2.1348892992    -0.5675091560     0.8441453285
Bq        -2.1348038331    -0.5224834597     0.8224041380
Bq        -2.1347183670    -0.4774577634     0.8006629475
Bq        -2.1346329008    -0.4324320670     0.7789217569
Bq        -2.1345474347    -0.3874063707     0.7571805664
Bq        -2.1344619686    -0.3423806743     0.7354393759
Bq        -2.1343765024    -0.2973549780     0.7136981854
Bq        -2.1342910363    -0.2523292817     0.6919569949
Bq        -2.1342055702    -0.2073035853     0.6702158044
Bq        -2.1341201040    -0.1622778890     0.6484746138
Bq        -2.1340346379    -0.1172521927     0.6267334233
Bq        -2.1339491717    -0.0722264963     0.6049922328
Bq        -2.1338637056    -0.0272008000     0.5832510423
Bq        -2.1337782395     0.0178248963     0.5615098518
Bq        -2.1336927733     0.0628505927     0.5397686613
Bq        -2.1336073072     0.1078762890     0.5180274707
Bq        -2.1335218411     0.1529019853     0.4962862802
Bq        -2.1334363749     0.1979276817     0.4745450897
Bq        -2.1333509088     0.2429533780     0.4528038992
Bq        -2.1332654426     0.2879790743     0.4310627087
Bq        -2.1331799765     0.3330047707     0.4093215182
Bq        -2.1330945104     0.3780304670     0.3875803276
Bq        -2.1330090442     0.4230561634     0.3658391371
Bq        -2.1329235781     0.4680818597     0.3440979466
Bq        -2.1328381120     0.5131075560     0.3223567561
Bq        -2.1327526458     0.5581332524     0.3006155656
Bq        -2.1326671797     0.6031589487     0.2788743751
Bq        -2.1325817135     0.6481846450     0.2571331845
Bq        -2.1324962474     0.6932103414     0.2353919940
Bq        -2.1324107813     0.7382360377     0.2136508035
Bq        -2.1323253151     0.7832617340     0.1919096130
Bq        -2.1322398490     0.8282874304     0.1701684225
Bq        -2.1321543829     0.8733131267     0.1484272320
Bq        -2.1320689167     0.9183388230     0.1266860415
Bq        -2.1319834506     0.9633645194     0.1049448509
Bq        -2.1318979844     1.0083902157     0.0832036604
Bq        -2.1318125183     1.0534159120     0.0614624699
Bq        -2.1317270522     1.0984416084     0.0397212794
Bq        -2.1316415860     1.1434673047     0.0179800889
Bq        -2.1315561199     1.1884930011    -0.0037611016
Bq        -2.1314706538     1.2335186974    -0.0255022922
Bq        -2.1313851876     1.2785443937    -0.0472434827
Bq        -2.1312997215     1.3235700901    -0.0689846732
Bq        -2.1312142553     1.3685957864    -0.0907258637
Bq        -2.1311287892     1.4136214827    -0.1124670542
Bq        -2.1310433231     1.4586471791    -0.1342082447
Bq        -2.1309578569     1.5036728754    -0.1559494353
Bq        -2.1308723908     1.5486985717    -0.1776906258
Bq        -2.1307869247     1.5937242681    -0.1994318163
Bq        -2.1307014585     1.6387499644    -0.2211730068
Bq        -2.1306159924     1.6837756607    -0.2429141973
Bq        -2.1305305262     1.7288013571    -0.2646553878
Bq        -2.1304450601     1.7738270534    -0.2863965784
Bq        -2.1303595940     1.8188527497    -0.3081377689
Bq        -2.1302741278     1.8638784461    -0.3298789594
Bq        -2.1301886617     1.9089041424    -0.3516201499
Bq        -2.1301031956     1.9539298388    -0.3733613404
Bq        -2.1300177294     1.9989555351    -0.3951025309
Bq        -2.1299322633     2.0439812314    -0.4168437215
Bq        -2.1298467971     2.0890069278    -0.4385849120
Bq        -2.1297613310     2.1340326241    -0.4603261025
Bq        -2.1296758649     2.1790583204    -0.4820672930
Bq        -2.1295903987     2.2240840168    -0.5038084835
Bq        -2.0881373988    -2.2784856168     1.6705071201
Bq        -2.0880519327    -2.2334599204     1.6487659296
Bq        -2.0879664665    -2.1884342241     1.6270247390
Bq        -2.0878810004    -2.1434085278     1.6052835485
Bq        -2.0877955342    -2.0983828314     1.5835423580
Bq        -2.0877100681    -2.0533571351     1.5618011675
Bq        -2.0876246020    -2.0083314388     1.5400599770
Bq        -2.0875391358    -1.9633057424     1.5183187865
Bq        -2.0874536697    -1.9182800461     1.4965775959
Bq        -2.0873682036    -1.8732543497     1.4748364054
Bq        -2.0872827374    -1.8282286534     1.4530952149
Bq        -2.0871972713    -1.7832029571     1.4313540244
Bq        -2.0871118051    -1.7381772607     1.4096128339
Bq        -2.0870263390    -1.6931515644     1.3878716434
Bq        -2.0869408729    -1.6481258681     1.3661304528
Bq        -2.0868554067    -1.6031001717     1.3443892623
Bq        -2.0867699406    -1.5580744754     1.3226480718
Bq        -2.0866844745    -1.5130487791     1.3009068813
Bq        -2.0865990083    -1.4680230827     1.2791656908
Bq        -2.0865135422    -1.4229973864     1.2574245003
Bq        -2.0864280760    -1.3779716901     1.2356833097
Bq        -2.0863426099    -1.3329459937     1.2139421192
Bq        -2.0862571438    -1.2879202974     1.1922009287
Bq        -2.0861716776    -1.2428946011     1.1704597382
Bq        -2.0860862115    -1.1978689047     1.1487185477
Bq        -2.0860007454    -1.1528432084     1.1269773572
Bq        -2.0859152792    -1.1078175120     1.1052361667
Bq        -2.0858298131    -1.0627918157     1.0834949761
Bq        -2.0857443470    -1.0177661194     1.0617537856
Bq        -2.0856588808    -0.9727404230     1.0400125951
Bq        -2.0855734147    -0.9277147267     1.0182714046
Bq        -2.0854879485    -0.8826890304     0.9965302141
Bq        -2.0854024824    -0.8376633340     0.9747890236
Bq        -2.0853170163    -0.7926376377     0.9530478330
Bq        -2.0852315501    -0.7476119414     0.9313066425
Bq        -2.0851460840    -0.7025862450     0.9095654520
Bq        -2.0850606179    -0.6575605487     0.8878242615
Bq        -2.0849751517    -0.6125348524     0.8660830710
Bq        -2.0848896856    -0.5675091560     0.8443418805
Bq        -2.0848042194    -0.5224834597     0.8226006899
Bq        -2.0847187533    -0.4774577634     0.8008594994
Bq        -2.0846332872    -0.4324320670     0.7791183089
Bq        -2.0845478210    -0.3874063707     0.7573771184
Bq        -2.0844623549    -0.3423806743     0.7356359279
Bq        -2.0843768888    -0.2973549780     0.7138947374
Bq        -2.0842914226    -0.2523292817     0.6921535468
Bq        -2.0842059565    -0.2073035853     0.6704123563
Bq        -2.0841204903    -0.1622778890     0.6486711658
Bq        -2.0840350242    -0.1172521927     0.6269299753
Bq        -2.0839495581    -0.0722264963     0.6051887848
Bq        -2.0838640919    -0.0272008000     0.5834475943
Bq        -2.0837786258     0.0178248963     0.5617064037
Bq        -2.0836931597     0.0628505927     0.5399652132
Bq        -2.0836076935     0.1078762890     0.5182240227
Bq        -2.0835222274     0.1529019853     0.4964828322
Bq        -2.0834367612     0.1979276817     0.4747416417
Bq        -2.0833512951     0.2429533780     0.4530004512
Bq        -2.0832658290     0.2879790743     0.4312592606
Bq        -2.0831803628     0.3330047707     0.4095180701
Bq        -2.0830948967     0.3780304670     0.3877768796
Bq        -2.0830094306     0.4230561634     0.3660356891
Bq        -2.0829239644     0.4680818597     0.3442944986
Bq        -2.0828384983     0.5131075560     0.3225533081
Bq        -2.0827530321     0.5581332524     0.3008121176
Bq        -2.0826675660     0.6031589487     0.2790709270
Bq        -2.0825820999     0.6481846450     0.2573297365
Bq        -2.0824966337     0.6932103414     0.2355885460
Bq        -2.0824111676     0.7382360377     0.2138473555
Bq        -2.0823257015     0.7832617340     0.1921061650
Bq        -2.0822402353     0.8282874304     0.1703649745
Bq        -2.0821547692     0.8733131267     0.1486237839
Bq        -2.0820693030     0.9183388230     0.1268825934
Bq        -2.0819838369     0.9633645194     0.1051414029
Bq        -2.0818983708     1.0083902157     0.0834002124
Bq        -2.0818129046     1.0534159120     0.0616590219
Bq        -2.0817274385     1.0984416084     0.0399178314
Bq        -2.0816419724     1.1434673047     0.0181766408
Bq        -2.0815565062     1.1884930011    -0.0035645497
Bq        -2.0814710401     1.2335186974    -0.0253057402
Bq        -2.0813855739     1.2785443937    -0.0470469307
Bq        -2.0813001078     1.3235700901    -0.0687881212
Bq        -2.0812146417     1.3685957864    -0.0905293117
Bq        -2.0811291755     1.4136214827    -0.1122705023
Bq        -2.0810437094     1.4586471791    -0.1340116928
Bq        -2.0809582433     1.5036728754    -0.1557528833
Bq        -2.0808727771     1.5486985717    -0.1774940738
Bq        -2.0807873110     1.5937242681    -0.1992352643
Bq        -2.0807018448     1.6387499644    -0.2209764548
Bq        -2.0806163787     1.6837756607    -0.2427176454
Bq        -2.0805309126     1.7288013571    -0.2644588359
Bq        -2.0804454464     1.7738270534    -0.2862000264
Bq        -2.0803599803     1.8188527497    -0.3079412169
Bq        -2.0802745142     1.8638784461    -0.3296824074
Bq        -2.0801890480     1.9089041424    -0.3514235979
Bq        -2.0801035819     1.9539298388    -0.3731647885
Bq        -2.0800181157     1.9989555351    -0.3949059790
Bq        -2.0799326496     2.0439812314    -0.4166471695
Bq        -2.0798471835     2.0890069278    -0.4383883600
Bq        -2.0797617173     2.1340326241    -0.4601295505
Bq        -2.0796762512     2.1790583204    -0.4818707410
Bq        -2.0795907851     2.2240840168    -0.5036119315
Bq        -2.0381377851    -2.2784856168     1.6707036720
Bq        -2.0380523190    -2.2334599204     1.6489624815
Bq        -2.0379668529    -2.1884342241     1.6272212910
Bq        -2.0378813867    -2.1434085278     1.6054801005
Bq        -2.0377959206    -2.0983828314     1.5837389100
Bq        -2.0377104544    -2.0533571351     1.5619977195
Bq        -2.0376249883    -2.0083314388     1.5402565289
Bq        -2.0375395222    -1.9633057424     1.5185153384
Bq        -2.0374540560    -1.9182800461     1.4967741479
Bq        -2.0373685899    -1.8732543497     1.4750329574
Bq        -2.0372831238    -1.8282286534     1.4532917669
Bq        -2.0371976576    -1.7832029571     1.4315505764
Bq        -2.0371121915    -1.7381772607     1.4098093859
Bq        -2.0370267253    -1.6931515644     1.3880681953
Bq        -2.0369412592    -1.6481258681     1.3663270048
Bq        -2.0368557931    -1.6031001717     1.3445858143
Bq        -2.0367703269    -1.5580744754     1.3228446238
Bq        -2.0366848608    -1.5130487791     1.3011034333
Bq        -2.0365993947    -1.4680230827     1.2793622428
Bq        -2.0365139285    -1.4229973864     1.2576210522
Bq        -2.0364284624    -1.3779716901     1.2358798617
Bq        -2.0363429962    -1.3329459937     1.2141386712
Bq        -2.0362575301    -1.2879202974     1.1923974807
Bq        -2.0361720640    -1.2428946011     1.1706562902
Bq        -2.0360865978    -1.1978689047     1.1489150997
Bq        -2.0360011317    -1.1528432084     1.1271739091
Bq        -2.0359156656    -1.1078175120     1.1054327186
Bq        -2.0358301994    -1.0627918157     1.0836915281
Bq        -2.0357447333    -1.0177661194     1.0619503376
Bq        -2.0356592671    -0.9727404230     1.0402091471
Bq        -2.0355738010    -0.9277147267     1.0184679566
Bq        -2.0354883349    -0.8826890304     0.9967267660
Bq        -2.0354028687    -0.8376633340     0.9749855755
Bq        -2.0353174026    -0.7926376377     0.9532443850

1
2
3
4
5
6
7
8
9
10
11
12
13
14
15
16
17
18
19
20
21
22
23
24
25
26
27
28
29
30
31
32
33
34
35
36
37
38
39
40
41
42
43
44
45
46
47
48
49
50
51
52
53
54
55
56
57
58
59
60
61
62
63
64
65
66
67
68
69
70
71
72
73
74
75
76
77
78
79
80
81
82
83
84
85
86
87
88
89
90
91
92
93
94
95
96
97
98
99
100
101
102
103
104
105
106
107
108
109
110
111
112
113
114
115
116
117
118
119
120
121
122
123
124
125
126
127
128
129
130
131
132
133
134
135
136
137
138
139
140
141
142
143
144
145
146
147
148
149
150
151
152
153
154
155
156
157
158
159
160
161
162
163
164
165
166
167
168
169
170
171
172
173
174
175
176
177
178
179
180
181
182
183
184
185
186
187
188
189
190
191
192
193
194
195
196
197
198
199
200
201
202
203
204
205
206
207
208
209
210
211
212
213
214
215
216
217
218
219
220
221
222
223
224
225
226
227
228
229
230
231
232
233
234
235
236

