%nproc=8
%mem=1000MB
# rb3lyp/6-311+g** NMR geom=connectivity

Title

0 1
C    -4.0500558   -0.5771862    0.8136712
H    -5.0263804   -1.0082727    1.0024760
C    -3.9381552    0.6617804    0.2400876
H    -4.8252424    1.2338890   -0.0111295
C    -2.6768410    1.2433246    0.0057578
C    -1.4974121    0.5051527    0.2848253
C    -1.6508332   -0.7338728    0.9404026
H    -0.7713646   -1.2730967    1.2633753
C    -2.8898548   -1.2624035    1.1994307
H    -2.9683706   -2.2124563    1.7152676
C    -2.5773185    2.5963696   -0.4192930
H    -3.4870728    3.1412239   -0.6474055
C    -1.3741895    3.2147896   -0.4364030
H    -1.2997315    4.2742019   -0.6578144
C    -0.1719488    2.4994090   -0.1734588
C    -0.2043917    1.1018437    0.0192689
C     1.0513491    3.2042560   -0.0676222
H     1.0427344    4.2819499   -0.1896997
C     2.1942091    2.5487446    0.2579577
H     3.1168527    3.0912848    0.4334727
C     2.2216473    1.1336562    0.2934990
C     1.0486931    0.3945528    0.0302412
C     3.4483363    0.4614633    0.5573939
H     4.3095794    1.0606054    0.8334846
C     3.5427346   -0.8855926    0.4749463
H     4.4731467   -1.3939704    0.7038822
C     2.4490052   -1.6474447   -0.0196319
C     1.2150704   -1.0057258   -0.3013573
C     0.2531113   -1.7434440   -1.0216591
H    -0.6541356   -1.2535051   -1.3462847
C     0.4494193   -3.0628597   -1.3413779
H    -0.3083162   -3.5944309   -1.9054060
C     1.6251726   -3.7207967   -0.9552541
H     1.7670048   -4.7687404   -1.1927019
C     2.6109872   -3.0144177   -0.3183050
H     3.5525612   -3.4902813   -0.0646367
Bq         2.9744974624    -0.9510606583     0.2449595047
Bq         2.9726519371    -0.9015693112     0.2518297745
Bq         2.9708064118    -0.8520779642     0.2587000443
Bq         2.9689608866    -0.8025866172     0.2655703141
Bq         2.9671153613    -0.7530952702     0.2724405838
Bq         2.9652698360    -0.7036039232     0.2793108536
Bq         2.9634243108    -0.6541125761     0.2861811234
Bq         2.9615787855    -0.6046212291     0.2930513932
Bq         2.9597332602    -0.5551298821     0.2999216630
Bq         2.9578877350    -0.5056385351     0.3067919327
Bq         2.9560422097    -0.4561471881     0.3136622025
Bq         2.9541966844    -0.4066558411     0.3205324723
Bq         2.9523511592    -0.3571644940     0.3274027421
Bq         2.9505056339    -0.3076731470     0.3342730118
Bq         2.9486601086    -0.2581818000     0.3411432816
Bq         2.9468145834    -0.2086904530     0.3480135514
Bq         2.9449690581    -0.1591991060     0.3548838212
Bq         2.9431235328    -0.1097077589     0.3617540910
Bq         2.9412780076    -0.0602164119     0.3686243607
Bq         2.9394324823    -0.0107250649     0.3754946305
Bq         2.9375869570     0.0387662821     0.3823649003
Bq         2.9357414318     0.0882576291     0.3892351701
Bq         2.9338959065     0.1377489761     0.3961054399
Bq         2.9320503812     0.1872403232     0.4029757096
Bq         2.9302048560     0.2367316702     0.4098459794
Bq         2.9283593307     0.2862230172     0.4167162492
Bq         2.9265138054     0.3357143642     0.4235865190
Bq         2.9246682802     0.3852057112     0.4304567888
Bq         2.9228227549     0.4346970583     0.4373270585
Bq         2.9209772296     0.4841884053     0.4441973283
Bq         2.9191317044     0.5336797523     0.4510675981
Bq         2.9172861791     0.5831710993     0.4579378679
Bq         2.9154406538     0.6326624463     0.4648081377
Bq         2.9135951285     0.6821537933     0.4716784074
Bq         2.9117496033     0.7316451404     0.4785486772
Bq         2.9099040780     0.7811364874     0.4854189470
Bq         2.9080585527     0.8306278344     0.4922892168
Bq         2.9062130275     0.8801191814     0.4991594866
Bq         2.9043675022     0.9296105284     0.5060297563
Bq         2.9025219769     0.9791018754     0.5129000261
Bq         2.9006764517     1.0285932225     0.5197702959
Bq         2.8988309264     1.0780845695     0.5266405657
Bq         2.8969854011     1.1275759165     0.5335108355
Bq         2.8951398759     1.1770672635     0.5403811052
Bq         2.8932943506     1.2265586105     0.5472513750
Bq         2.8914488253     1.2760499576     0.5541216448
Bq         2.8896033001     1.3255413046     0.5609919146
Bq         2.8877577748     1.3750326516     0.5678621844
Bq         2.8859122495     1.4245239986     0.5747324541
Bq         2.8840667243     1.4740153456     0.5816027239
Bq         2.8822211990     1.5235066926     0.5884729937
Bq         2.8803756737     1.5729980397     0.5953432635
Bq         2.8785301485     1.6224893867     0.6022135332
Bq         2.8766846232     1.6719807337     0.6090838030
Bq         2.8748390979     1.7214720807     0.6159540728
Bq         2.8729935727     1.7709634277     0.6228243426
Bq         2.8711480474     1.8204547748     0.6296946124
Bq         2.8693025221     1.8699461218     0.6365648821
Bq         2.8674569969     1.9194374688     0.6434351519
Bq         2.8656114716     1.9689288158     0.6503054217
Bq         2.8637659463     2.0184201628     0.6571756915
Bq         2.8619204211     2.0679115098     0.6640459613
Bq         2.8600748958     2.1174028569     0.6709162310
Bq         2.8582293705     2.1668942039     0.6777865008
Bq         2.8563838453     2.2163855509     0.6846567706
Bq         3.0892244970    -2.7327491509     0.0106011836
Bq         3.0873789718    -2.6832578039     0.0174714533
Bq         3.0855334465    -2.6337664569     0.0243417231
Bq         3.0836879212    -2.5842751098     0.0312119929
Bq         3.0818423960    -2.5347837628     0.0380822627
Bq         3.0799968707    -2.4852924158     0.0449525324
Bq         3.0781513454    -2.4358010688     0.0518228022
Bq         3.0763058202    -2.3863097218     0.0586930720
Bq         3.0744602949    -2.3368183748     0.0655633418
Bq         3.0726147696    -2.2873270277     0.0724336116
Bq         3.0707692444    -2.2378356807     0.0793038813
Bq         3.0689237191    -2.1883443337     0.0861741511
Bq         3.0670781938    -2.1388529867     0.0930444209
Bq         3.0652326686    -2.0893616397     0.0999146907
Bq         3.0633871433    -2.0398702926     0.1067849605
Bq         3.0615416180    -1.9903789456     0.1136552302
Bq         3.0596960928    -1.9408875986     0.1205255000
Bq         3.0578505675    -1.8913962516     0.1273957698
Bq         3.0560050422    -1.8419049046     0.1342660396
Bq         3.0541595170    -1.7924135576     0.1411363094
Bq         3.0523139917    -1.7429222105     0.1480065791
Bq         3.0504684664    -1.6934308635     0.1548768489
Bq         3.0486229412    -1.6439395165     0.1617471187
Bq         3.0467774159    -1.5944481695     0.1686173885
Bq         3.0449318906    -1.5449568225     0.1754876583
Bq         3.0430863654    -1.4954654754     0.1823579280
Bq         3.0412408401    -1.4459741284     0.1892281978
Bq         3.0393953148    -1.3964827814     0.1960984676
Bq         3.0375497895    -1.3469914344     0.2029687374
Bq         3.0357042643    -1.2975000874     0.2098390072
Bq         3.0338587390    -1.2480087404     0.2167092769
Bq         3.0320132137    -1.1985173933     0.2235795467
Bq         3.0301676885    -1.1490260463     0.2304498165
Bq         3.0283221632    -1.0995346993     0.2373200863
Bq         3.0264766379    -1.0500433523     0.2441903561
Bq         3.0246311127    -1.0005520053     0.2510606258
Bq         3.0227855874    -0.9510606583     0.2579308956
Bq         3.0209400621    -0.9015693112     0.2648011654
Bq         3.0190945369    -0.8520779642     0.2716714352
Bq         3.0172490116    -0.8025866172     0.2785417049
Bq         3.0154034863    -0.7530952702     0.2854119747
Bq         3.0135579611    -0.7036039232     0.2922822445
Bq         3.0117124358    -0.6541125761     0.2991525143
Bq         3.0098669105    -0.6046212291     0.3060227841
Bq         3.0080213853    -0.5551298821     0.3128930538
Bq         3.0061758600    -0.5056385351     0.3197633236
Bq         3.0043303347    -0.4561471881     0.3266335934
Bq         3.0024848095    -0.4066558411     0.3335038632
Bq         3.0006392842    -0.3571644940     0.3403741330
Bq         2.9987937589    -0.3076731470     0.3472444027
Bq         2.9969482337    -0.2581818000     0.3541146725
Bq         2.9951027084    -0.2086904530     0.3609849423
Bq         2.9932571831    -0.1591991060     0.3678552121
Bq         2.9914116579    -0.1097077589     0.3747254819
Bq         2.9895661326    -0.0602164119     0.3815957516
Bq         2.9877206073    -0.0107250649     0.3884660214
Bq         2.9858750821     0.0387662821     0.3953362912
Bq         2.9840295568     0.0882576291     0.4022065610
Bq         2.9821840315     0.1377489761     0.4090768308
Bq         2.9803385062     0.1872403232     0.4159471005
Bq         2.9784929810     0.2367316702     0.4228173703
Bq         2.9766474557     0.2862230172     0.4296876401
Bq         2.9748019304     0.3357143642     0.4365579099
Bq         2.9729564052     0.3852057112     0.4434281797
Bq         2.9711108799     0.4346970583     0.4502984494
Bq         2.9692653546     0.4841884053     0.4571687192
Bq         2.9674198294     0.5336797523     0.4640389890
Bq         2.9655743041     0.5831710993     0.4709092588
Bq         2.9637287788     0.6326624463     0.4777795286
Bq         2.9618832536     0.6821537933     0.4846497983
Bq         2.9600377283     0.7316451404     0.4915200681
Bq         2.9581922030     0.7811364874     0.4983903379
Bq         2.9563466778     0.8306278344     0.5052606077
Bq         2.9545011525     0.8801191814     0.5121308775
Bq         2.9526556272     0.9296105284     0.5190011472
Bq         2.9508101020     0.9791018754     0.5258714170
Bq         2.9489645767     1.0285932225     0.5327416868
Bq         2.9471190514     1.0780845695     0.5396119566
Bq         2.9452735262     1.1275759165     0.5464822263
Bq         2.9434280009     1.1770672635     0.5533524961
Bq         2.9415824756     1.2265586105     0.5602227659
Bq         2.9397369504     1.2760499576     0.5670930357
Bq         2.9378914251     1.3255413046     0.5739633055
Bq         2.9360458998     1.3750326516     0.5808335752
Bq         2.9342003746     1.4245239986     0.5877038450
Bq         2.9323548493     1.4740153456     0.5945741148
Bq         2.9305093240     1.5235066926     0.6014443846
Bq         2.9286637988     1.5729980397     0.6083146544
Bq         2.9268182735     1.6224893867     0.6151849241
Bq         2.9249727482     1.6719807337     0.6220551939
Bq         2.9231272230     1.7214720807     0.6289254637
Bq         2.9212816977     1.7709634277     0.6357957335
Bq         2.9194361724     1.8204547748     0.6426660033
Bq         2.9175906471     1.8699461218     0.6495362730
Bq         2.9157451219     1.9194374688     0.6564065428
Bq         2.9138995966     1.9689288158     0.6632768126
Bq         2.9120540713     2.0184201628     0.6701470824
Bq         2.9102085461     2.0679115098     0.6770173522
Bq         2.9083630208     2.1174028569     0.6838876219
Bq         2.9065174955     2.1668942039     0.6907578917
Bq         2.9046719703     2.2163855509     0.6976281615
Bq         3.1375126221    -2.7327491509     0.0235725744
Bq         3.1356670968    -2.6832578039     0.0304428442
Bq         3.1338215715    -2.6337664569     0.0373131140
Bq         3.1319760463    -2.5842751098     0.0441833838
Bq         3.1301305210    -2.5347837628     0.0510536536
Bq         3.1282849957    -2.4852924158     0.0579239233
Bq         3.1264394705    -2.4358010688     0.0647941931
Bq         3.1245939452    -2.3863097218     0.0716644629
Bq         3.1227484199    -2.3368183748     0.0785347327
Bq         3.1209028947    -2.2873270277     0.0854050025
Bq         3.1190573694    -2.2378356807     0.0922752722
Bq         3.1172118441    -2.1883443337     0.0991455420
Bq         3.1153663189    -2.1388529867     0.1060158118
Bq         3.1135207936    -2.0893616397     0.1128860816
Bq         3.1116752683    -2.0398702926     0.1197563514
Bq         3.1098297431    -1.9903789456     0.1266266211
Bq         3.1079842178    -1.9408875986     0.1334968909
Bq         3.1061386925    -1.8913962516     0.1403671607
Bq         3.1042931672    -1.8419049046     0.1472374305
Bq         3.1024476420    -1.7924135576     0.1541077003
Bq         3.1006021167    -1.7429222105     0.1609779700
Bq         3.0987565914    -1.6934308635     0.1678482398
Bq         3.0969110662    -1.6439395165     0.1747185096
Bq         3.0950655409    -1.5944481695     0.1815887794
Bq         3.0932200156    -1.5449568225     0.1884590492
Bq         3.0913744904    -1.4954654754     0.1953293189
Bq         3.0895289651    -1.4459741284     0.2021995887
Bq         3.0876834398    -1.3964827814     0.2090698585
Bq         3.0858379146    -1.3469914344     0.2159401283
Bq         3.0839923893    -1.2975000874     0.2228103980
Bq         3.0821468640    -1.2480087404     0.2296806678
Bq         3.0803013388    -1.1985173933     0.2365509376
Bq         3.0784558135    -1.1490260463     0.2434212074
Bq         3.0766102882    -1.0995346993     0.2502914772

1
2
3
4
5
6
7
8
9
10
11
12
13
14
15
16
17
18
19
20
21
22
23
24
25
26
27
28
29
30
31
32
33
34
35
36
37
38
39
40
41
42
43
44
45
46
47
48
49
50
51
52
53
54
55
56
57
58
59
60
61
62
63
64
65
66
67
68
69
70
71
72
73
74
75
76
77
78
79
80
81
82
83
84
85
86
87
88
89
90
91
92
93
94
95
96
97
98
99
100
101
102
103
104
105
106
107
108
109
110
111
112
113
114
115
116
117
118
119
120
121
122
123
124
125
126
127
128
129
130
131
132
133
134
135
136
137
138
139
140
141
142
143
144
145
146
147
148
149
150
151
152
153
154
155
156
157
158
159
160
161
162
163
164
165
166
167
168
169
170
171
172
173
174
175
176
177
178
179
180
181
182
183
184
185
186
187
188
189
190
191
192
193
194
195
196
197
198
199
200
201
202
203
204
205
206
207
208
209
210
211
212
213
214
215
216
217
218
219
220
221
222
223
224
225
226
227
228
229
230
231
232
233
234
235
236

