%nproc=8
%mem=1000MB
# rb3lyp/6-311+g** NMR geom=connectivity

Title

0 1
C    -4.0500558   -0.5771862    0.8136712
H    -5.0263804   -1.0082727    1.0024760
C    -3.9381552    0.6617804    0.2400876
H    -4.8252424    1.2338890   -0.0111295
C    -2.6768410    1.2433246    0.0057578
C    -1.4974121    0.5051527    0.2848253
C    -1.6508332   -0.7338728    0.9404026
H    -0.7713646   -1.2730967    1.2633753
C    -2.8898548   -1.2624035    1.1994307
H    -2.9683706   -2.2124563    1.7152676
C    -2.5773185    2.5963696   -0.4192930
H    -3.4870728    3.1412239   -0.6474055
C    -1.3741895    3.2147896   -0.4364030
H    -1.2997315    4.2742019   -0.6578144
C    -0.1719488    2.4994090   -0.1734588
C    -0.2043917    1.1018437    0.0192689
C     1.0513491    3.2042560   -0.0676222
H     1.0427344    4.2819499   -0.1896997
C     2.1942091    2.5487446    0.2579577
H     3.1168527    3.0912848    0.4334727
C     2.2216473    1.1336562    0.2934990
C     1.0486931    0.3945528    0.0302412
C     3.4483363    0.4614633    0.5573939
H     4.3095794    1.0606054    0.8334846
C     3.5427346   -0.8855926    0.4749463
H     4.4731467   -1.3939704    0.7038822
C     2.4490052   -1.6474447   -0.0196319
C     1.2150704   -1.0057258   -0.3013573
C     0.2531113   -1.7434440   -1.0216591
H    -0.6541356   -1.2535051   -1.3462847
C     0.4494193   -3.0628597   -1.3413779
H    -0.3083162   -3.5944309   -1.9054060
C     1.6251726   -3.7207967   -0.9552541
H     1.7670048   -4.7687404   -1.1927019
C     2.6109872   -3.0144177   -0.3183050
H     3.5525612   -3.4902813   -0.0646367
Bq         2.6129340569    -3.5224972259    -0.4748325978
Bq         2.6074308202    -3.4743007345    -0.4627159725
Bq         2.6019275835    -3.4261042432    -0.4505993473
Bq         2.5964243468    -3.3779077518    -0.4384827221
Bq         2.5909211102    -3.3297112605    -0.4263660969
Bq         2.5854178735    -3.2815147691    -0.4142494716
Bq         2.5799146368    -3.2333182777    -0.4021328464
Bq         2.5744114001    -3.1851217864    -0.3900162212
Bq         2.5689081634    -3.1369252950    -0.3778995959
Bq         2.5634049267    -3.0887288037    -0.3657829707
Bq         2.5579016900    -3.0405323123    -0.3536663455
Bq         2.5523984534    -2.9923358210    -0.3415497203
Bq         2.5468952167    -2.9441393296    -0.3294330950
Bq         2.5413919800    -2.8959428383    -0.3173164698
Bq         2.5358887433    -2.8477463469    -0.3051998446
Bq         2.5303855066    -2.7995498555    -0.2930832193
Bq         2.5248822699    -2.7513533642    -0.2809665941
Bq         2.5193790332    -2.7031568728    -0.2688499689
Bq         2.5138757966    -2.6549603815    -0.2567333436
Bq         2.5083725599    -2.6067638901    -0.2446167184
Bq         2.5028693232    -2.5585673988    -0.2325000932
Bq         2.4973660865    -2.5103709074    -0.2203834680
Bq         2.4918628498    -2.4621744160    -0.2082668427
Bq         2.4863596131    -2.4139779247    -0.1961502175
Bq         2.4808563764    -2.3657814333    -0.1840335923
Bq         2.4753531398    -2.3175849420    -0.1719169670
Bq         2.4698499031    -2.2693884506    -0.1598003418
Bq         2.4643466664    -2.2211919593    -0.1476837166
Bq         2.4588434297    -2.1729954679    -0.1355670914
Bq         2.4533401930    -2.1247989766    -0.1234504661
Bq         2.4478369563    -2.0766024852    -0.1113338409
Bq         2.4423337196    -2.0284059938    -0.0992172157
Bq         2.4368304830    -1.9802095025    -0.0871005904
Bq         2.4313272463    -1.9320130111    -0.0749839652
Bq         2.4258240096    -1.8838165198    -0.0628673400
Bq         2.4203207729    -1.8356200284    -0.0507507148
Bq         2.4148175362    -1.7874235371    -0.0386340895
Bq         2.4093142995    -1.7392270457    -0.0265174643
Bq         2.4038110628    -1.6910305543    -0.0144008391
Bq         2.3983078261    -1.6428340630    -0.0022842138
Bq         2.3928045895    -1.5946375716     0.0098324114
Bq         2.3873013528    -1.5464410803     0.0219490366
Bq         2.3817981161    -1.4982445889     0.0340656618
Bq         2.3762948794    -1.4500480976     0.0461822871
Bq         2.3707916427    -1.4018516062     0.0582989123
Bq         2.3652884060    -1.3536551149     0.0704155375
Bq         2.3597851693    -1.3054586235     0.0825321628
Bq         2.3542819327    -1.2572621321     0.0946487880
Bq         2.3487786960    -1.2090656408     0.1067654132
Bq         2.3432754593    -1.1608691494     0.1188820385
Bq         2.3377722226    -1.1126726581     0.1309986637
Bq         2.3322689859    -1.0644761667     0.1431152889
Bq         2.3267657492    -1.0162796754     0.1552319141
Bq         2.3212625125    -0.9680831840     0.1673485394
Bq         2.3157592759    -0.9198866927     0.1794651646
Bq         2.3102560392    -0.8716902013     0.1915817898
Bq         2.3047528025    -0.8234937099     0.2036984151
Bq         2.2992495658    -0.7752972186     0.2158150403
Bq         2.2937463291    -0.7271007272     0.2279316655
Bq         2.2882430924    -0.6789042359     0.2400482907
Bq         2.2827398557    -0.6307077445     0.2521649160
Bq         2.2772366191    -0.5825112532     0.2642815412
Bq         2.2717333824    -0.5343147618     0.2763981664
Bq         2.2662301457    -0.4861182704     0.2885147917
Bq         2.2607269090    -0.4379217791     0.3006314169
Bq         2.2552236723    -0.3897252877     0.3127480421
Bq         2.2497204356    -0.3415287964     0.3248646673
Bq         2.2442171989    -0.2933323050     0.3369812926
Bq         2.2387139623    -0.2451358137     0.3490979178
Bq         2.2332107256    -0.1969393223     0.3612145430
Bq         2.2277074889    -0.1487428310     0.3733311683
Bq         2.2222042522    -0.1005463396     0.3854477935
Bq         2.2167010155    -0.0523498482     0.3975644187
Bq         2.2111977788    -0.0041533569     0.4096810439
Bq         2.2056945421     0.0440431345     0.4217976692
Bq         2.8015426474    -4.7756060011    -0.7691881599
Bq         2.7960394107    -4.7274095098    -0.7570715347
Bq         2.7905361740    -4.6792130184    -0.7449549095
Bq         2.7850329373    -4.6310165271    -0.7328382842
Bq         2.7795297007    -4.5828200357    -0.7207216590
Bq         2.7740264640    -4.5346235444    -0.7086050338
Bq         2.7685232273    -4.4864270530    -0.6964884085
Bq         2.7630199906    -4.4382305616    -0.6843717833
Bq         2.7575167539    -4.3900340703    -0.6722551581
Bq         2.7520135172    -4.3418375789    -0.6601385328
Bq         2.7465102805    -4.2936410876    -0.6480219076
Bq         2.7410070439    -4.2454445962    -0.6359052824
Bq         2.7355038072    -4.1972481049    -0.6237886572
Bq         2.7300005705    -4.1490516135    -0.6116720319
Bq         2.7244973338    -4.1008551222    -0.5995554067
Bq         2.7189940971    -4.0526586308    -0.5874387815
Bq         2.7134908604    -4.0044621394    -0.5753221562
Bq         2.7079876237    -3.9562656481    -0.5632055310
Bq         2.7024843870    -3.9080691567    -0.5510889058
Bq         2.6969811504    -3.8598726654    -0.5389722806
Bq         2.6914779137    -3.8116761740    -0.5268556553
Bq         2.6859746770    -3.7634796827    -0.5147390301
Bq         2.6804714403    -3.7152831913    -0.5026224049
Bq         2.6749682036    -3.6670866999    -0.4905057796
Bq         2.6694649669    -3.6188902086    -0.4783891544
Bq         2.6639617302    -3.5706937172    -0.4662725292
Bq         2.6584584936    -3.5224972259    -0.4541559040
Bq         2.6529552569    -3.4743007345    -0.4420392787
Bq         2.6474520202    -3.4261042432    -0.4299226535
Bq         2.6419487835    -3.3779077518    -0.4178060283
Bq         2.6364455468    -3.3297112605    -0.4056894030
Bq         2.6309423101    -3.2815147691    -0.3935727778
Bq         2.6254390734    -3.2333182777    -0.3814561526
Bq         2.6199358368    -3.1851217864    -0.3693395274
Bq         2.6144326001    -3.1369252950    -0.3572229021
Bq         2.6089293634    -3.0887288037    -0.3451062769
Bq         2.6034261267    -3.0405323123    -0.3329896517
Bq         2.5979228900    -2.9923358210    -0.3208730264
Bq         2.5924196533    -2.9441393296    -0.3087564012
Bq         2.5869164166    -2.8959428383    -0.2966397760
Bq         2.5814131800    -2.8477463469    -0.2845231507
Bq         2.5759099433    -2.7995498555    -0.2724065255
Bq         2.5704067066    -2.7513533642    -0.2602899003
Bq         2.5649034699    -2.7031568728    -0.2481732751
Bq         2.5594002332    -2.6549603815    -0.2360566498
Bq         2.5538969965    -2.6067638901    -0.2239400246
Bq         2.5483937598    -2.5585673988    -0.2118233994
Bq         2.5428905232    -2.5103709074    -0.1997067741
Bq         2.5373872865    -2.4621744160    -0.1875901489
Bq         2.5318840498    -2.4139779247    -0.1754735237
Bq         2.5263808131    -2.3657814333    -0.1633568985
Bq         2.5208775764    -2.3175849420    -0.1512402732
Bq         2.5153743397    -2.2693884506    -0.1391236480
Bq         2.5098711030    -2.2211919593    -0.1270070228
Bq         2.5043678664    -2.1729954679    -0.1148903975
Bq         2.4988646297    -2.1247989766    -0.1027737723
Bq         2.4933613930    -2.0766024852    -0.0906571471
Bq         2.4878581563    -2.0284059938    -0.0785405219
Bq         2.4823549196    -1.9802095025    -0.0664238966
Bq         2.4768516829    -1.9320130111    -0.0543072714
Bq         2.4713484462    -1.8838165198    -0.0421906462
Bq         2.4658452095    -1.8356200284    -0.0300740209
Bq         2.4603419729    -1.7874235371    -0.0179573957
Bq         2.4548387362    -1.7392270457    -0.0058407705
Bq         2.4493354995    -1.6910305543     0.0062758547
Bq         2.4438322628    -1.6428340630     0.0183924800
Bq         2.4383290261    -1.5946375716     0.0305091052
Bq         2.4328257894    -1.5464410803     0.0426257304
Bq         2.4273225527    -1.4982445889     0.0547423557
Bq         2.4218193161    -1.4500480976     0.0668589809
Bq         2.4163160794    -1.4018516062     0.0789756061
Bq         2.4108128427    -1.3536551149     0.0910922313
Bq         2.4053096060    -1.3054586235     0.1032088566
Bq         2.3998063693    -1.2572621321     0.1153254818
Bq         2.3943031326    -1.2090656408     0.1274421070
Bq         2.3887998959    -1.1608691494     0.1395587323
Bq         2.3832966593    -1.1126726581     0.1516753575
Bq         2.3777934226    -1.0644761667     0.1637919827
Bq         2.3722901859    -1.0162796754     0.1759086080
Bq         2.3667869492    -0.9680831840     0.1880252332
Bq         2.3612837125    -0.9198866927     0.2001418584
Bq         2.3557804758    -0.8716902013     0.2122584836
Bq         2.3502772391    -0.8234937099     0.2243751089
Bq         2.3447740025    -0.7752972186     0.2364917341
Bq         2.3392707658    -0.7271007272     0.2486083593
Bq         2.3337675291    -0.6789042359     0.2607249846
Bq         2.3282642924    -0.6307077445     0.2728416098
Bq         2.3227610557    -0.5825112532     0.2849582350
Bq         2.3172578190    -0.5343147618     0.2970748602
Bq         2.3117545823    -0.4861182704     0.3091914855
Bq         2.3062513457    -0.4379217791     0.3213081107
Bq         2.3007481090    -0.3897252877     0.3334247359
Bq         2.2952448723    -0.3415287964     0.3455413612
Bq         2.2897416356    -0.2933323050     0.3576579864
Bq         2.2842383989    -0.2451358137     0.3697746116
Bq         2.2787351622    -0.1969393223     0.3818912368
Bq         2.2732319255    -0.1487428310     0.3940078621
Bq         2.2677286889    -0.1005463396     0.4061244873
Bq         2.2622254522    -0.0523498482     0.4182411125
Bq         2.2567222155    -0.0041533569     0.4303577378
Bq         2.2512189788     0.0440431345     0.4424743630
Bq         2.8470670841    -4.7756060011    -0.7485114661
Bq         2.8415638474    -4.7274095098    -0.7363948409
Bq         2.8360606107    -4.6792130184    -0.7242782156
Bq         2.8305573740    -4.6310165271    -0.7121615904
Bq         2.8250541373    -4.5828200357    -0.7000449652
Bq         2.8195509006    -4.5346235444    -0.6879283400
Bq         2.8140476639    -4.4864270530    -0.6758117147
Bq         2.8085444273    -4.4382305616    -0.6636950895
Bq         2.8030411906    -4.3900340703    -0.6515784643
Bq         2.7975379539    -4.3418375789    -0.6394618390
Bq         2.7920347172    -4.2936410876    -0.6273452138
Bq         2.7865314805    -4.2454445962    -0.6152285886
Bq         2.7810282438    -4.1972481049    -0.6031119633
Bq         2.7755250071    -4.1490516135    -0.5909953381
Bq         2.7700217704    -4.1008551222    -0.5788787129
Bq         2.7645185338    -4.0526586308    -0.5667620877
Bq         2.7590152971    -4.0044621394    -0.5546454624
Bq         2.7535120604    -3.9562656481    -0.5425288372
Bq         2.7480088237    -3.9080691567    -0.5304122120
Bq         2.7425055870    -3.8598726654    -0.5182955867
Bq         2.7370023503    -3.8116761740    -0.5061789615
Bq         2.7314991136    -3.7634796827    -0.4940623363
Bq         2.7259958770    -3.7152831913    -0.4819457111
Bq         2.7204926403    -3.6670866999    -0.4698290858

1
2
3
4
5
6
7
8
9
10
11
12
13
14
15
16
17
18
19
20
21
22
23
24
25
26
27
28
29
30
31
32
33
34
35
36
37
38
39
40
41
42
43
44
45
46
47
48
49
50
51
52
53
54
55
56
57
58
59
60
61
62
63
64
65
66
67
68
69
70
71
72
73
74
75
76
77
78
79
80
81
82
83
84
85
86
87
88
89
90
91
92
93
94
95
96
97
98
99
100
101
102
103
104
105
106
107
108
109
110
111
112
113
114
115
116
117
118
119
120
121
122
123
124
125
126
127
128
129
130
131
132
133
134
135
136
137
138
139
140
141
142
143
144
145
146
147
148
149
150
151
152
153
154
155
156
157
158
159
160
161
162
163
164
165
166
167
168
169
170
171
172
173
174
175
176
177
178
179
180
181
182
183
184
185
186
187
188
189
190
191
192
193
194
195
196
197
198
199
200
201
202
203
204
205
206
207
208
209
210
211
212
213
214
215
216
217
218
219
220
221
222
223
224
225
226
227
228
229
230
231
232
233
234
235
236

