%nproc=8
%mem=1000MB
# rb3lyp/6-311+g** NMR geom=connectivity

Title

0 1
C    -4.0500558   -0.5771862    0.8136712
H    -5.0263804   -1.0082727    1.0024760
C    -3.9381552    0.6617804    0.2400876
H    -4.8252424    1.2338890   -0.0111295
C    -2.6768410    1.2433246    0.0057578
C    -1.4974121    0.5051527    0.2848253
C    -1.6508332   -0.7338728    0.9404026
H    -0.7713646   -1.2730967    1.2633753
C    -2.8898548   -1.2624035    1.1994307
H    -2.9683706   -2.2124563    1.7152676
C    -2.5773185    2.5963696   -0.4192930
H    -3.4870728    3.1412239   -0.6474055
C    -1.3741895    3.2147896   -0.4364030
H    -1.2997315    4.2742019   -0.6578144
C    -0.1719488    2.4994090   -0.1734588
C    -0.2043917    1.1018437    0.0192689
C     1.0513491    3.2042560   -0.0676222
H     1.0427344    4.2819499   -0.1896997
C     2.1942091    2.5487446    0.2579577
H     3.1168527    3.0912848    0.4334727
C     2.2216473    1.1336562    0.2934990
C     1.0486931    0.3945528    0.0302412
C     3.4483363    0.4614633    0.5573939
H     4.3095794    1.0606054    0.8334846
C     3.5427346   -0.8855926    0.4749463
H     4.4731467   -1.3939704    0.7038822
C     2.4490052   -1.6474447   -0.0196319
C     1.2150704   -1.0057258   -0.3013573
C     0.2531113   -1.7434440   -1.0216591
H    -0.6541356   -1.2535051   -1.3462847
C     0.4494193   -3.0628597   -1.3413779
H    -0.3083162   -3.5944309   -1.9054060
C     1.6251726   -3.7207967   -0.9552541
H     1.7670048   -4.7687404   -1.1927019
C     2.6109872   -3.0144177   -0.3183050
H     3.5525612   -3.4902813   -0.0646367
Bq         0.0615503898    -1.1126726581    -0.9028360270
Bq         0.0560471531    -1.0644761667    -0.8907194018
Bq         0.0505439164    -1.0162796754    -0.8786027766
Bq         0.0450406797    -0.9680831840    -0.8664861513
Bq         0.0395374430    -0.9198866927    -0.8543695261
Bq         0.0340342063    -0.8716902013    -0.8422529009
Bq         0.0285309696    -0.8234937099    -0.8301362757
Bq         0.0230277330    -0.7752972186    -0.8180196504
Bq         0.0175244963    -0.7271007272    -0.8059030252
Bq         0.0120212596    -0.6789042359    -0.7937864000
Bq         0.0065180229    -0.6307077445    -0.7816697747
Bq         0.0010147862    -0.5825112532    -0.7695531495
Bq        -0.0044884505    -0.5343147618    -0.7574365243
Bq        -0.0099916872    -0.4861182704    -0.7453198991
Bq        -0.0154949238    -0.4379217791    -0.7332032738
Bq        -0.0209981605    -0.3897252877    -0.7210866486
Bq        -0.0265013972    -0.3415287964    -0.7089700234
Bq        -0.0320046339    -0.2933323050    -0.6968533981
Bq        -0.0375078706    -0.2451358137    -0.6847367729
Bq        -0.0430111073    -0.1969393223    -0.6726201477
Bq        -0.0485143440    -0.1487428310    -0.6605035224
Bq        -0.0540175806    -0.1005463396    -0.6483868972
Bq        -0.0595208173    -0.0523498482    -0.6362702720
Bq        -0.0650240540    -0.0041533569    -0.6241536468
Bq        -0.0705272907     0.0440431345    -0.6120370215
Bq         0.5253208146    -4.7756060011    -1.8030228506
Bq         0.5198175779    -4.7274095098    -1.7909062254
Bq         0.5143143412    -4.6792130184    -1.7787896002
Bq         0.5088111045    -4.6310165271    -1.7666729749
Bq         0.5033078678    -4.5828200357    -1.7545563497
Bq         0.4978046311    -4.5346235444    -1.7424397245
Bq         0.4923013944    -4.4864270530    -1.7303230992
Bq         0.4867981578    -4.4382305616    -1.7182064740
Bq         0.4812949211    -4.3900340703    -1.7060898488
Bq         0.4757916844    -4.3418375789    -1.6939732236
Bq         0.4702884477    -4.2936410876    -1.6818565983
Bq         0.4647852110    -4.2454445962    -1.6697399731
Bq         0.4592819743    -4.1972481049    -1.6576233479
Bq         0.4537787376    -4.1490516135    -1.6455067226
Bq         0.4482755010    -4.1008551222    -1.6333900974
Bq         0.4427722643    -4.0526586308    -1.6212734722
Bq         0.4372690276    -4.0044621394    -1.6091568470
Bq         0.4317657909    -3.9562656481    -1.5970402217
Bq         0.4262625542    -3.9080691567    -1.5849235965
Bq         0.4207593175    -3.8598726654    -1.5728069713
Bq         0.4152560808    -3.8116761740    -1.5606903460
Bq         0.4097528442    -3.7634796827    -1.5485737208
Bq         0.4042496075    -3.7152831913    -1.5364570956
Bq         0.3987463708    -3.6670866999    -1.5243404704
Bq         0.3932431341    -3.6188902086    -1.5122238451
Bq         0.3877398974    -3.5706937172    -1.5001072199
Bq         0.3822366607    -3.5224972259    -1.4879905947
Bq         0.3767334240    -3.4743007345    -1.4758739694
Bq         0.3712301874    -3.4261042432    -1.4637573442
Bq         0.3657269507    -3.3779077518    -1.4516407190
Bq         0.3602237140    -3.3297112605    -1.4395240937
Bq         0.3547204773    -3.2815147691    -1.4274074685
Bq         0.3492172406    -3.2333182777    -1.4152908433
Bq         0.3437140039    -3.1851217864    -1.4031742181
Bq         0.3382107672    -3.1369252950    -1.3910575928
Bq         0.3327075305    -3.0887288037    -1.3789409676
Bq         0.3272042939    -3.0405323123    -1.3668243424
Bq         0.3217010572    -2.9923358210    -1.3547077171
Bq         0.3161978205    -2.9441393296    -1.3425910919
Bq         0.3106945838    -2.8959428383    -1.3304744667
Bq         0.3051913471    -2.8477463469    -1.3183578415
Bq         0.2996881104    -2.7995498555    -1.3062412162
Bq         0.2941848737    -2.7513533642    -1.2941245910
Bq         0.2886816371    -2.7031568728    -1.2820079658
Bq         0.2831784004    -2.6549603815    -1.2698913405
Bq         0.2776751637    -2.6067638901    -1.2577747153
Bq         0.2721719270    -2.5585673988    -1.2456580901
Bq         0.2666686903    -2.5103709074    -1.2335414649
Bq         0.2611654536    -2.4621744160    -1.2214248396
Bq         0.2556622169    -2.4139779247    -1.2093082144
Bq         0.2501589803    -2.3657814333    -1.1971915892
Bq         0.2446557436    -2.3175849420    -1.1850749639
Bq         0.2391525069    -2.2693884506    -1.1729583387
Bq         0.2336492702    -2.2211919593    -1.1608417135
Bq         0.2281460335    -2.1729954679    -1.1487250883
Bq         0.2226427968    -2.1247989766    -1.1366084630
Bq         0.2171395601    -2.0766024852    -1.1244918378
Bq         0.2116363235    -2.0284059938    -1.1123752126
Bq         0.2061330868    -1.9802095025    -1.1002585873
Bq         0.2006298501    -1.9320130111    -1.0881419621
Bq         0.1951266134    -1.8838165198    -1.0760253369
Bq         0.1896233767    -1.8356200284    -1.0639087116
Bq         0.1841201400    -1.7874235371    -1.0517920864
Bq         0.1786169033    -1.7392270457    -1.0396754612
Bq         0.1731136667    -1.6910305543    -1.0275588360
Bq         0.1676104300    -1.6428340630    -1.0154422107
Bq         0.1621071933    -1.5946375716    -1.0033255855
Bq         0.1566039566    -1.5464410803    -0.9912089603
Bq         0.1511007199    -1.4982445889    -0.9790923350
Bq         0.1455974832    -1.4500480976    -0.9669757098
Bq         0.1400942465    -1.4018516062    -0.9548590846
Bq         0.1345910099    -1.3536551149    -0.9427424594
Bq         0.1290877732    -1.3054586235    -0.9306258341
Bq         0.1235845365    -1.2572621321    -0.9185092089
Bq         0.1180812998    -1.2090656408    -0.9063925837
Bq         0.1125780631    -1.1608691494    -0.8942759584
Bq         0.1070748264    -1.1126726581    -0.8821593332
Bq         0.1015715897    -1.0644761667    -0.8700427080
Bq         0.0960683530    -1.0162796754    -0.8579260828
Bq         0.0905651164    -0.9680831840    -0.8458094575
Bq         0.0850618797    -0.9198866927    -0.8336928323
Bq         0.0795586430    -0.8716902013    -0.8215762071
Bq         0.0740554063    -0.8234937099    -0.8094595818
Bq         0.0685521696    -0.7752972186    -0.7973429566
Bq         0.0630489329    -0.7271007272    -0.7852263314
Bq         0.0575456962    -0.6789042359    -0.7731097062
Bq         0.0520424596    -0.6307077445    -0.7609930809
Bq         0.0465392229    -0.5825112532    -0.7488764557
Bq         0.0410359862    -0.5343147618    -0.7367598305
Bq         0.0355327495    -0.4861182704    -0.7246432052
Bq         0.0300295128    -0.4379217791    -0.7125265800
Bq         0.0245262761    -0.3897252877    -0.7004099548
Bq         0.0190230394    -0.3415287964    -0.6882933296
Bq         0.0135198028    -0.2933323050    -0.6761767043
Bq         0.0080165661    -0.2451358137    -0.6640600791
Bq         0.0025133294    -0.1969393223    -0.6519434539
Bq        -0.0029899073    -0.1487428310    -0.6398268286
Bq        -0.0084931440    -0.1005463396    -0.6277102034
Bq        -0.0139963807    -0.0523498482    -0.6155935782
Bq        -0.0194996174    -0.0041533569    -0.6034769529
Bq        -0.0250028540     0.0440431345    -0.5913603277
Bq         0.5708452512    -4.7756060011    -1.7823461568
Bq         0.5653420145    -4.7274095098    -1.7702295316
Bq         0.5598387778    -4.6792130184    -1.7581129063
Bq         0.5543355412    -4.6310165271    -1.7459962811
Bq         0.5488323045    -4.5828200357    -1.7338796559
Bq         0.5433290678    -4.5346235444    -1.7217630307
Bq         0.5378258311    -4.4864270530    -1.7096464054
Bq         0.5323225944    -4.4382305616    -1.6975297802
Bq         0.5268193577    -4.3900340703    -1.6854131550
Bq         0.5213161210    -4.3418375789    -1.6732965297
Bq         0.5158128844    -4.2936410876    -1.6611799045
Bq         0.5103096477    -4.2454445962    -1.6490632793
Bq         0.5048064110    -4.1972481049    -1.6369466541
Bq         0.4993031743    -4.1490516135    -1.6248300288
Bq         0.4937999376    -4.1008551222    -1.6127134036
Bq         0.4882967009    -4.0526586308    -1.6005967784
Bq         0.4827934642    -4.0044621394    -1.5884801531
Bq         0.4772902276    -3.9562656481    -1.5763635279
Bq         0.4717869909    -3.9080691567    -1.5642469027
Bq         0.4662837542    -3.8598726654    -1.5521302775
Bq         0.4607805175    -3.8116761740    -1.5400136522
Bq         0.4552772808    -3.7634796827    -1.5278970270
Bq         0.4497740441    -3.7152831913    -1.5157804018
Bq         0.4442708074    -3.6670866999    -1.5036637765
Bq         0.4387675708    -3.6188902086    -1.4915471513
Bq         0.4332643341    -3.5706937172    -1.4794305261
Bq         0.4277610974    -3.5224972259    -1.4673139009
Bq         0.4222578607    -3.4743007345    -1.4551972756
Bq         0.4167546240    -3.4261042432    -1.4430806504
Bq         0.4112513873    -3.3779077518    -1.4309640252
Bq         0.4057481506    -3.3297112605    -1.4188473999
Bq         0.4002449139    -3.2815147691    -1.4067307747
Bq         0.3947416773    -3.2333182777    -1.3946141495
Bq         0.3892384406    -3.1851217864    -1.3824975242
Bq         0.3837352039    -3.1369252950    -1.3703808990
Bq         0.3782319672    -3.0887288037    -1.3582642738
Bq         0.3727287305    -3.0405323123    -1.3461476486
Bq         0.3672254938    -2.9923358210    -1.3340310233
Bq         0.3617222571    -2.9441393296    -1.3219143981
Bq         0.3562190205    -2.8959428383    -1.3097977729
Bq         0.3507157838    -2.8477463469    -1.2976811476
Bq         0.3452125471    -2.7995498555    -1.2855645224
Bq         0.3397093104    -2.7513533642    -1.2734478972
Bq         0.3342060737    -2.7031568728    -1.2613312720
Bq         0.3287028370    -2.6549603815    -1.2492146467
Bq         0.3231996003    -2.6067638901    -1.2370980215
Bq         0.3176963637    -2.5585673988    -1.2249813963
Bq         0.3121931270    -2.5103709074    -1.2128647710
Bq         0.3066898903    -2.4621744160    -1.2007481458
Bq         0.3011866536    -2.4139779247    -1.1886315206
Bq         0.2956834169    -2.3657814333    -1.1765148954
Bq         0.2901801802    -2.3175849420    -1.1643982701
Bq         0.2846769435    -2.2693884506    -1.1522816449
Bq         0.2791737069    -2.2211919593    -1.1401650197
Bq         0.2736704702    -2.1729954679    -1.1280483944
Bq         0.2681672335    -2.1247989766    -1.1159317692
Bq         0.2626639968    -2.0766024852    -1.1038151440
Bq         0.2571607601    -2.0284059938    -1.0916985188
Bq         0.2516575234    -1.9802095025    -1.0795818935
Bq         0.2461542867    -1.9320130111    -1.0674652683
Bq         0.2406510501    -1.8838165198    -1.0553486431
Bq         0.2351478134    -1.8356200284    -1.0432320178
Bq         0.2296445767    -1.7874235371    -1.0311153926
Bq         0.2241413400    -1.7392270457    -1.0189987674
Bq         0.2186381033    -1.6910305543    -1.0068821421
Bq         0.2131348666    -1.6428340630    -0.9947655169
Bq         0.2076316299    -1.5946375716    -0.9826488917
Bq         0.2021283933    -1.5464410803    -0.9705322665
Bq         0.1966251566    -1.4982445889    -0.9584156412
Bq         0.1911219199    -1.4500480976    -0.9462990160
Bq         0.1856186832    -1.4018516062    -0.9341823908
Bq         0.1801154465    -1.3536551149    -0.9220657655
Bq         0.1746122098    -1.3054586235    -0.9099491403
Bq         0.1691089731    -1.2572621321    -0.8978325151

1
2
3
4
5
6
7
8
9
10
11
12
13
14
15
16
17
18
19
20
21
22
23
24
25
26
27
28
29
30
31
32
33
34
35
36
37
38
39
40
41
42
43
44
45
46
47
48
49
50
51
52
53
54
55
56
57
58
59
60
61
62
63
64
65
66
67
68
69
70
71
72
73
74
75
76
77
78
79
80
81
82
83
84
85
86
87
88
89
90
91
92
93
94
95
96
97
98
99
100
101
102
103
104
105
106
107
108
109
110
111
112
113
114
115
116
117
118
119
120
121
122
123
124
125
126
127
128
129
130
131
132
133
134
135
136
137
138
139
140
141
142
143
144
145
146
147
148
149
150
151
152
153
154
155
156
157
158
159
160
161
162
163
164
165
166
167
168
169
170
171
172
173
174
175
176
177
178
179
180
181
182
183
184
185
186
187
188
189
190
191
192
193
194
195
196
197
198
199
200
201
202
203
204
205
206
207
208
209
210
211
212
213
214
215
216
217
218
219
220
221
222
223
224
225
226
227
228
229
230
231
232
233
234
235
236

