%nproc=8
%mem=1000MB
# rb3lyp/6-311+g** NMR geom=connectivity

Title

0 1
C    -4.0500558   -0.5771862    0.8136712
H    -5.0263804   -1.0082727    1.0024760
C    -3.9381552    0.6617804    0.2400876
H    -4.8252424    1.2338890   -0.0111295
C    -2.6768410    1.2433246    0.0057578
C    -1.4974121    0.5051527    0.2848253
C    -1.6508332   -0.7338728    0.9404026
H    -0.7713646   -1.2730967    1.2633753
C    -2.8898548   -1.2624035    1.1994307
H    -2.9683706   -2.2124563    1.7152676
C    -2.5773185    2.5963696   -0.4192930
H    -3.4870728    3.1412239   -0.6474055
C    -1.3741895    3.2147896   -0.4364030
H    -1.2997315    4.2742019   -0.6578144
C    -0.1719488    2.4994090   -0.1734588
C    -0.2043917    1.1018437    0.0192689
C     1.0513491    3.2042560   -0.0676222
H     1.0427344    4.2819499   -0.1896997
C     2.1942091    2.5487446    0.2579577
H     3.1168527    3.0912848    0.4334727
C     2.2216473    1.1336562    0.2934990
C     1.0486931    0.3945528    0.0302412
C     3.4483363    0.4614633    0.5573939
H     4.3095794    1.0606054    0.8334846
C     3.5427346   -0.8855926    0.4749463
H     4.4731467   -1.3939704    0.7038822
C     2.4490052   -1.6474447   -0.0196319
C     1.2150704   -1.0057258   -0.3013573
C     0.2531113   -1.7434440   -1.0216591
H    -0.6541356   -1.2535051   -1.3462847
C     0.4494193   -3.0628597   -1.3413779
H    -0.3083162   -3.5944309   -1.9054060
C     1.6251726   -3.7207967   -0.9552541
H     1.7670048   -4.7687404   -1.1927019
C     2.6109872   -3.0144177   -0.3183050
H     3.5525612   -3.4902813   -0.0646367
Bq        -0.2049962578     3.0122943012    -0.1795265270
Bq        -0.2046401908     3.0622339089    -0.1819573293
Bq        -0.2042841238     3.1121735166    -0.1843881317
Bq        -0.2039280568     3.1621131243    -0.1868189341
Bq        -0.2035719899     3.2120527319    -0.1892497365
Bq        -0.2032159229     3.2619923396    -0.1916805389
Bq        -0.2028598559     3.3119319473    -0.1941113413
Bq        -0.2025037890     3.3618715550    -0.1965421436
Bq        -0.2021477220     3.4118111627    -0.1989729460
Bq        -0.2017916550     3.4617507704    -0.2014037484
Bq        -0.2014355881     3.5116903781    -0.2038345508
Bq        -0.2010795211     3.5616299858    -0.2062653532
Bq        -0.2007234541     3.6115695935    -0.2086961556
Bq        -0.2003673871     3.6615092011    -0.2111269579
Bq        -0.2000113202     3.7114488088    -0.2135577603
Bq        -0.1996552532     3.7613884165    -0.2159885627
Bq        -0.1992991862     3.8113280242    -0.2184193651
Bq        -0.1989431193     3.8612676319    -0.2208501675
Bq        -0.1985870523     3.9112072396    -0.2232809699
Bq        -0.1982309853     3.9611468473    -0.2257117722
Bq        -0.1978749183     4.0110864550    -0.2281425746
Bq        -0.1975188514     4.0610260627    -0.2305733770
Bq        -0.1971627844     4.1109656703    -0.2330041794
Bq        -0.1968067174     4.1609052780    -0.2354349818
Bq        -0.1964506505     4.2108448857    -0.2378657842
Bq        -0.1960945835     4.2607844934    -0.2402965865
Bq        -0.1957385165     4.3107241011    -0.2427273889
Bq        -0.1818731517    -0.6832366678     0.0075995789
Bq        -0.1815170847    -0.6332970601     0.0051687765
Bq        -0.1811610177    -0.5833574524     0.0027379741
Bq        -0.1808049508    -0.5334178447     0.0003071717
Bq        -0.1804488838    -0.4834782370    -0.0021236307
Bq        -0.1800928168    -0.4335386293    -0.0045544331
Bq        -0.1797367498    -0.3835990216    -0.0069852354
Bq        -0.1793806829    -0.3336594139    -0.0094160378
Bq        -0.1790246159    -0.2837198063    -0.0118468402
Bq        -0.1786685489    -0.2337801986    -0.0142776426
Bq        -0.1783124820    -0.1838405909    -0.0167084450
Bq        -0.1779564150    -0.1339009832    -0.0191392474
Bq        -0.1776003480    -0.0839613755    -0.0215700497
Bq        -0.1772442810    -0.0340217678    -0.0240008521
Bq        -0.1768882141     0.0159178399    -0.0264316545
Bq        -0.1765321471     0.0658574476    -0.0288624569
Bq        -0.1761760801     0.1157970553    -0.0312932593
Bq        -0.1758200132     0.1657366629    -0.0337240617
Bq        -0.1754639462     0.2156762706    -0.0361548640
Bq        -0.1751078792     0.2656158783    -0.0385856664
Bq        -0.1747518123     0.3155554860    -0.0410164688
Bq        -0.1743957453     0.3654950937    -0.0434472712
Bq        -0.1740396783     0.4154347014    -0.0458780736
Bq        -0.1736836113     0.4653743091    -0.0483088760
Bq        -0.1733275444     0.5153139168    -0.0507396783
Bq        -0.1729714774     0.5652535245    -0.0531704807
Bq        -0.1726154104     0.6151931321    -0.0556012831
Bq        -0.1722593435     0.6651327398    -0.0580320855
Bq        -0.1719032765     0.7150723475    -0.0604628879
Bq        -0.1715472095     0.7650119552    -0.0628936903
Bq        -0.1711911425     0.8149515629    -0.0653244926
Bq        -0.1708350756     0.8648911706    -0.0677552950
Bq        -0.1704790086     0.9148307783    -0.0701860974
Bq        -0.1701229416     0.9647703860    -0.0726168998
Bq        -0.1697668747     1.0147099936    -0.0750477022
Bq        -0.1694108077     1.0646496013    -0.0774785046
Bq        -0.1690547407     1.1145892090    -0.0799093069
Bq        -0.1686986737     1.1645288167    -0.0823401093
Bq        -0.1683426068     1.2144684244    -0.0847709117
Bq        -0.1679865398     1.2644080321    -0.0872017141
Bq        -0.1676304728     1.3143476398    -0.0896325165
Bq        -0.1672744059     1.3642872475    -0.0920633189
Bq        -0.1669183389     1.4142268552    -0.0944941212
Bq        -0.1665622719     1.4641664628    -0.0969249236
Bq        -0.1662062050     1.5141060705    -0.0993557260
Bq        -0.1658501380     1.5640456782    -0.1017865284
Bq        -0.1654940710     1.6139852859    -0.1042173308
Bq        -0.1651380040     1.6639248936    -0.1066481332
Bq        -0.1647819371     1.7138645013    -0.1090789355
Bq        -0.1644258701     1.7638041090    -0.1115097379
Bq        -0.1640698031     1.8137437167    -0.1139405403
Bq        -0.1637137362     1.8636833244    -0.1163713427
Bq        -0.1633576692     1.9136229320    -0.1188021451
Bq        -0.1630016022     1.9635625397    -0.1212329475
Bq        -0.1626455352     2.0135021474    -0.1236637498
Bq        -0.1622894683     2.0634417551    -0.1260945522
Bq        -0.1619334013     2.1133813628    -0.1285253546
Bq        -0.1615773343     2.1633209705    -0.1309561570
Bq        -0.1612212674     2.2132605782    -0.1333869594
Bq        -0.1608652004     2.2632001859    -0.1358177618
Bq        -0.1605091334     2.3131397936    -0.1382485641
Bq        -0.1601530664     2.3630794012    -0.1406793665
Bq        -0.1597969995     2.4130190089    -0.1431101689
Bq        -0.1594409325     2.4629586166    -0.1455409713
Bq        -0.1590848655     2.5128982243    -0.1479717737
Bq        -0.1587287986     2.5628378320    -0.1504025760
Bq        -0.1583727316     2.6127774397    -0.1528333784
Bq        -0.1580166646     2.6627170474    -0.1552641808
Bq        -0.1576605977     2.7126566551    -0.1576949832
Bq        -0.1573045307     2.7625962627    -0.1601257856
Bq        -0.1569484637     2.8125358704    -0.1625565880
Bq        -0.1565923967     2.8624754781    -0.1649873903
Bq        -0.1562363298     2.9124150858    -0.1674181927
Bq        -0.1558802628     2.9623546935    -0.1698489951
Bq        -0.1555241958     3.0122943012    -0.1722797975
Bq        -0.1551681289     3.0622339089    -0.1747105999
Bq        -0.1548120619     3.1121735166    -0.1771414023
Bq        -0.1544559949     3.1621131243    -0.1795722046
Bq        -0.1540999279     3.2120527319    -0.1820030070
Bq        -0.1537438610     3.2619923396    -0.1844338094
Bq        -0.1533877940     3.3119319473    -0.1868646118
Bq        -0.1530317270     3.3618715550    -0.1892954142
Bq        -0.1526756601     3.4118111627    -0.1917262166
Bq        -0.1523195931     3.4617507704    -0.1941570189
Bq        -0.1519635261     3.5116903781    -0.1965878213
Bq        -0.1516074591     3.5616299858    -0.1990186237
Bq        -0.1512513922     3.6115695935    -0.2014494261
Bq        -0.1508953252     3.6615092011    -0.2038802285
Bq        -0.1505392582     3.7114488088    -0.2063110309
Bq        -0.1501831913     3.7613884165    -0.2087418332
Bq        -0.1498271243     3.8113280242    -0.2111726356
Bq        -0.1494710573     3.8612676319    -0.2136034380
Bq        -0.1491149904     3.9112072396    -0.2160342404
Bq        -0.1487589234     3.9611468473    -0.2184650428
Bq        -0.1484028564     4.0110864550    -0.2208958452
Bq        -0.1480467894     4.0610260627    -0.2233266475
Bq        -0.1476907225     4.1109656703    -0.2257574499
Bq        -0.1473346555     4.1609052780    -0.2281882523
Bq        -0.1469785885     4.2108448857    -0.2306190547
Bq        -0.1466225216     4.2607844934    -0.2330498571
Bq        -0.1462664546     4.3107241011    -0.2354806595
Bq        -0.1324010897    -0.6832366678     0.0148463083
Bq        -0.1320450228    -0.6332970601     0.0124155059
Bq        -0.1316889558    -0.5833574524     0.0099847036
Bq        -0.1313328888    -0.5334178447     0.0075539012
Bq        -0.1309768218    -0.4834782370     0.0051230988
Bq        -0.1306207549    -0.4335386293     0.0026922964
Bq        -0.1302646879    -0.3835990216     0.0002614940
Bq        -0.1299086209    -0.3336594139    -0.0021693084
Bq        -0.1295525540    -0.2837198063    -0.0046001107
Bq        -0.1291964870    -0.2337801986    -0.0070309131
Bq        -0.1288404200    -0.1838405909    -0.0094617155
Bq        -0.1284843531    -0.1339009832    -0.0118925179
Bq        -0.1281282861    -0.0839613755    -0.0143233203
Bq        -0.1277722191    -0.0340217678    -0.0167541227
Bq        -0.1274161521     0.0159178399    -0.0191849250
Bq        -0.1270600852     0.0658574476    -0.0216157274
Bq        -0.1267040182     0.1157970553    -0.0240465298
Bq        -0.1263479512     0.1657366629    -0.0264773322
Bq        -0.1259918843     0.2156762706    -0.0289081346
Bq        -0.1256358173     0.2656158783    -0.0313389370
Bq        -0.1252797503     0.3155554860    -0.0337697393
Bq        -0.1249236833     0.3654950937    -0.0362005417
Bq        -0.1245676164     0.4154347014    -0.0386313441
Bq        -0.1242115494     0.4653743091    -0.0410621465
Bq        -0.1238554824     0.5153139168    -0.0434929489
Bq        -0.1234994155     0.5652535245    -0.0459237513
Bq        -0.1231433485     0.6151931321    -0.0483545536
Bq        -0.1227872815     0.6651327398    -0.0507853560
Bq        -0.1224312145     0.7150723475    -0.0532161584
Bq        -0.1220751476     0.7650119552    -0.0556469608
Bq        -0.1217190806     0.8149515629    -0.0580777632
Bq        -0.1213630136     0.8648911706    -0.0605085656
Bq        -0.1210069467     0.9148307783    -0.0629393679
Bq        -0.1206508797     0.9647703860    -0.0653701703
Bq        -0.1202948127     1.0147099936    -0.0678009727
Bq        -0.1199387458     1.0646496013    -0.0702317751
Bq        -0.1195826788     1.1145892090    -0.0726625775
Bq        -0.1192266118     1.1645288167    -0.0750933799
Bq        -0.1188705448     1.2144684244    -0.0775241822
Bq        -0.1185144779     1.2644080321    -0.0799549846
Bq        -0.1181584109     1.3143476398    -0.0823857870
Bq        -0.1178023439     1.3642872475    -0.0848165894
Bq        -0.1174462770     1.4142268552    -0.0872473918
Bq        -0.1170902100     1.4641664628    -0.0896781942
Bq        -0.1167341430     1.5141060705    -0.0921089965
Bq        -0.1163780760     1.5640456782    -0.0945397989
Bq        -0.1160220091     1.6139852859    -0.0969706013
Bq        -0.1156659421     1.6639248936    -0.0994014037
Bq        -0.1153098751     1.7138645013    -0.1018322061
Bq        -0.1149538082     1.7638041090    -0.1042630085
Bq        -0.1145977412     1.8137437167    -0.1066938108
Bq        -0.1142416742     1.8636833244    -0.1091246132
Bq        -0.1138856072     1.9136229320    -0.1115554156
Bq        -0.1135295403     1.9635625397    -0.1139862180
Bq        -0.1131734733     2.0135021474    -0.1164170204
Bq        -0.1128174063     2.0634417551    -0.1188478228
Bq        -0.1124613394     2.1133813628    -0.1212786251
Bq        -0.1121052724     2.1633209705    -0.1237094275
Bq        -0.1117492054     2.2132605782    -0.1261402299
Bq        -0.1113931385     2.2632001859    -0.1285710323
Bq        -0.1110370715     2.3131397936    -0.1310018347
Bq        -0.1106810045     2.3630794012    -0.1334326371
Bq        -0.1103249375     2.4130190089    -0.1358634394
Bq        -0.1099688706     2.4629586166    -0.1382942418
Bq        -0.1096128036     2.5128982243    -0.1407250442
Bq        -0.1092567366     2.5628378320    -0.1431558466
Bq        -0.1089006697     2.6127774397    -0.1455866490
Bq        -0.1085446027     2.6627170474    -0.1480174514
Bq        -0.1081885357     2.7126566551    -0.1504482537
Bq        -0.1078324687     2.7625962627    -0.1528790561
Bq        -0.1074764018     2.8125358704    -0.1553098585
Bq        -0.1071203348     2.8624754781    -0.1577406609

1
2
3
4
5
6
7
8
9
10
11
12
13
14
15
16
17
18
19
20
21
22
23
24
25
26
27
28
29
30
31
32
33
34
35
36
37
38
39
40
41
42
43
44
45
46
47
48
49
50
51
52
53
54
55
56
57
58
59
60
61
62
63
64
65
66
67
68
69
70
71
72
73
74
75
76
77
78
79
80
81
82
83
84
85
86
87
88
89
90
91
92
93
94
95
96
97
98
99
100
101
102
103
104
105
106
107
108
109
110
111
112
113
114
115
116
117
118
119
120
121
122
123
124
125
126
127
128
129
130
131
132
133
134
135
136
137
138
139
140
141
142
143
144
145
146
147
148
149
150
151
152
153
154
155
156
157
158
159
160
161
162
163
164
165
166
167
168
169
170
171
172
173
174
175
176
177
178
179
180
181
182
183
184
185
186
187
188
189
190
191
192
193
194
195
196
197
198
199
200
201
202
203
204
205
206
207
208
209
210
211
212
213
214
215
216
217
218
219
220
221
222
223
224
225
226
227
228
229
230
231
232
233
234
235
236

