%nproc=8
%mem=1000MB
# rb3lyp/6-311+g** NMR geom=connectivity

Title

0 1
C    -4.0500558   -0.5771862    0.8136712
H    -5.0263804   -1.0082727    1.0024760
C    -3.9381552    0.6617804    0.2400876
H    -4.8252424    1.2338890   -0.0111295
C    -2.6768410    1.2433246    0.0057578
C    -1.4974121    0.5051527    0.2848253
C    -1.6508332   -0.7338728    0.9404026
H    -0.7713646   -1.2730967    1.2633753
C    -2.8898548   -1.2624035    1.1994307
H    -2.9683706   -2.2124563    1.7152676
C    -2.5773185    2.5963696   -0.4192930
H    -3.4870728    3.1412239   -0.6474055
C    -1.3741895    3.2147896   -0.4364030
H    -1.2997315    4.2742019   -0.6578144
C    -0.1719488    2.4994090   -0.1734588
C    -0.2043917    1.1018437    0.0192689
C     1.0513491    3.2042560   -0.0676222
H     1.0427344    4.2819499   -0.1896997
C     2.1942091    2.5487446    0.2579577
H     3.1168527    3.0912848    0.4334727
C     2.2216473    1.1336562    0.2934990
C     1.0486931    0.3945528    0.0302412
C     3.4483363    0.4614633    0.5573939
H     4.3095794    1.0606054    0.8334846
C     3.5427346   -0.8855926    0.4749463
H     4.4731467   -1.3939704    0.7038822
C     2.4490052   -1.6474447   -0.0196319
C     1.2150704   -1.0057258   -0.3013573
C     0.2531113   -1.7434440   -1.0216591
H    -0.6541356   -1.2535051   -1.3462847
C     0.4494193   -3.0628597   -1.3413779
H    -0.3083162   -3.5944309   -1.9054060
C     1.6251726   -3.7207967   -0.9552541
H     1.7670048   -4.7687404   -1.1927019
C     2.6109872   -3.0144177   -0.3183050
H     3.5525612   -3.4902813   -0.0646367
Bq         1.1696860519     0.8306278344     0.0253191446
Bq         1.1678405266     0.8801191814     0.0321894144
Bq         1.1659950014     0.9296105284     0.0390596841
Bq         1.1641494761     0.9791018754     0.0459299539
Bq         1.1623039508     1.0285932225     0.0528002237
Bq         1.1604584256     1.0780845695     0.0596704935
Bq         1.1586129003     1.1275759165     0.0665407633
Bq         1.1567673750     1.1770672635     0.0734110330
Bq         1.1549218498     1.2265586105     0.0802813028
Bq         1.1530763245     1.2760499576     0.0871515726
Bq         1.1512307992     1.3255413046     0.0940218424
Bq         1.1493852740     1.3750326516     0.1008921121
Bq         1.1475397487     1.4245239986     0.1077623819
Bq         1.1456942234     1.4740153456     0.1146326517
Bq         1.1438486982     1.5235066926     0.1215029215
Bq         1.1420031729     1.5729980397     0.1283731913
Bq         1.1401576476     1.6224893867     0.1352434610
Bq         1.1383121224     1.6719807337     0.1421137308
Bq         1.1364665971     1.7214720807     0.1489840006
Bq         1.1346210718     1.7709634277     0.1558542704
Bq         1.1327755466     1.8204547748     0.1627245402
Bq         1.1309300213     1.8699461218     0.1695948099
Bq         1.1290844960     1.9194374688     0.1764650797
Bq         1.1272389708     1.9689288158     0.1833353495
Bq         1.1253934455     2.0184201628     0.1902056193
Bq         1.1235479202     2.0679115098     0.1970758891
Bq         1.1217023949     2.1174028569     0.2039461588
Bq         1.1198568697     2.1668942039     0.2108164286
Bq         1.1180113444     2.2163855509     0.2176866984
Bq         1.3508519962    -2.7327491509    -0.4563688887
Bq         1.3490064709    -2.6832578039    -0.4494986189
Bq         1.3471609457    -2.6337664569    -0.4426283491
Bq         1.3453154204    -2.5842751098    -0.4357580793
Bq         1.3434698951    -2.5347837628    -0.4288878095
Bq         1.3416243699    -2.4852924158    -0.4220175398
Bq         1.3397788446    -2.4358010688    -0.4151472700
Bq         1.3379333193    -2.3863097218    -0.4082770002
Bq         1.3360877941    -2.3368183748    -0.4014067304
Bq         1.3342422688    -2.2873270277    -0.3945364606
Bq         1.3323967435    -2.2378356807    -0.3876661909
Bq         1.3305512183    -2.1883443337    -0.3807959211
Bq         1.3287056930    -2.1388529867    -0.3739256513
Bq         1.3268601677    -2.0893616397    -0.3670553815
Bq         1.3250146425    -2.0398702926    -0.3601851117
Bq         1.3231691172    -1.9903789456    -0.3533148420
Bq         1.3213235919    -1.9408875986    -0.3464445722
Bq         1.3194780667    -1.8913962516    -0.3395743024
Bq         1.3176325414    -1.8419049046    -0.3327040326
Bq         1.3157870161    -1.7924135576    -0.3258337628
Bq         1.3139414909    -1.7429222105    -0.3189634931
Bq         1.3120959656    -1.6934308635    -0.3120932233
Bq         1.3102504403    -1.6439395165    -0.3052229535
Bq         1.3084049150    -1.5944481695    -0.2983526837
Bq         1.3065593898    -1.5449568225    -0.2914824139
Bq         1.3047138645    -1.4954654754    -0.2846121442
Bq         1.3028683392    -1.4459741284    -0.2777418744
Bq         1.3010228140    -1.3964827814    -0.2708716046
Bq         1.2991772887    -1.3469914344    -0.2640013348
Bq         1.2973317634    -1.2975000874    -0.2571310650
Bq         1.2954862382    -1.2480087404    -0.2502607953
Bq         1.2936407129    -1.1985173933    -0.2433905255
Bq         1.2917951876    -1.1490260463    -0.2365202557
Bq         1.2899496624    -1.0995346993    -0.2296499859
Bq         1.2881041371    -1.0500433523    -0.2227797161
Bq         1.2862586118    -1.0005520053    -0.2159094464
Bq         1.2844130866    -0.9510606583    -0.2090391766
Bq         1.2825675613    -0.9015693112    -0.2021689068
Bq         1.2807220360    -0.8520779642    -0.1952986370
Bq         1.2788765108    -0.8025866172    -0.1884283673
Bq         1.2770309855    -0.7530952702    -0.1815580975
Bq         1.2751854602    -0.7036039232    -0.1746878277
Bq         1.2733399350    -0.6541125761    -0.1678175579
Bq         1.2714944097    -0.6046212291    -0.1609472881
Bq         1.2696488844    -0.5551298821    -0.1540770184
Bq         1.2678033592    -0.5056385351    -0.1472067486
Bq         1.2659578339    -0.4561471881    -0.1403364788
Bq         1.2641123086    -0.4066558411    -0.1334662090
Bq         1.2622667834    -0.3571644940    -0.1265959392
Bq         1.2604212581    -0.3076731470    -0.1197256695
Bq         1.2585757328    -0.2581818000    -0.1128553997
Bq         1.2567302076    -0.2086904530    -0.1059851299
Bq         1.2548846823    -0.1591991060    -0.0991148601
Bq         1.2530391570    -0.1097077589    -0.0922445903
Bq         1.2511936318    -0.0602164119    -0.0853743206
Bq         1.2493481065    -0.0107250649    -0.0785040508
Bq         1.2475025812     0.0387662821    -0.0716337810
Bq         1.2456570559     0.0882576291    -0.0647635112
Bq         1.2438115307     0.1377489761    -0.0578932414
Bq         1.2419660054     0.1872403232    -0.0510229717
Bq         1.2401204801     0.2367316702    -0.0441527019
Bq         1.2382749549     0.2862230172    -0.0372824321
Bq         1.2364294296     0.3357143642    -0.0304121623
Bq         1.2345839043     0.3852057112    -0.0235418925
Bq         1.2327383791     0.4346970583    -0.0166716228
Bq         1.2308928538     0.4841884053    -0.0098013530
Bq         1.2290473285     0.5336797523    -0.0029310832
Bq         1.2272018033     0.5831710993     0.0039391866
Bq         1.2253562780     0.6326624463     0.0108094564
Bq         1.2235107527     0.6821537933     0.0176797261
Bq         1.2216652275     0.7316451404     0.0245499959
Bq         1.2198197022     0.7811364874     0.0314202657
Bq         1.2179741769     0.8306278344     0.0382905355
Bq         1.2161286517     0.8801191814     0.0451608052
Bq         1.2142831264     0.9296105284     0.0520310750
Bq         1.2124376011     0.9791018754     0.0589013448
Bq         1.2105920759     1.0285932225     0.0657716146
Bq         1.2087465506     1.0780845695     0.0726418844
Bq         1.2069010253     1.1275759165     0.0795121541
Bq         1.2050555001     1.1770672635     0.0863824239
Bq         1.2032099748     1.2265586105     0.0932526937
Bq         1.2013644495     1.2760499576     0.1001229635
Bq         1.1995189243     1.3255413046     0.1069932333
Bq         1.1976733990     1.3750326516     0.1138635030
Bq         1.1958278737     1.4245239986     0.1207337728
Bq         1.1939823485     1.4740153456     0.1276040426
Bq         1.1921368232     1.5235066926     0.1344743124
Bq         1.1902912979     1.5729980397     0.1413445822
Bq         1.1884457726     1.6224893867     0.1482148519
Bq         1.1866002474     1.6719807337     0.1550851217
Bq         1.1847547221     1.7214720807     0.1619553915
Bq         1.1829091968     1.7709634277     0.1688256613
Bq         1.1810636716     1.8204547748     0.1756959311
Bq         1.1792181463     1.8699461218     0.1825662008
Bq         1.1773726210     1.9194374688     0.1894364706
Bq         1.1755270958     1.9689288158     0.1963067404
Bq         1.1736815705     2.0184201628     0.2031770102
Bq         1.1718360452     2.0679115098     0.2100472800
Bq         1.1699905200     2.1174028569     0.2169175497
Bq         1.1681449947     2.1668942039     0.2237878195
Bq         1.1662994694     2.2163855509     0.2306580893
Bq         1.3991401212    -2.7327491509    -0.4433974978
Bq         1.3972945960    -2.6832578039    -0.4365272280
Bq         1.3954490707    -2.6337664569    -0.4296569582
Bq         1.3936035454    -2.5842751098    -0.4227866884
Bq         1.3917580202    -2.5347837628    -0.4159164186
Bq         1.3899124949    -2.4852924158    -0.4090461489
Bq         1.3880669696    -2.4358010688    -0.4021758791
Bq         1.3862214444    -2.3863097218    -0.3953056093
Bq         1.3843759191    -2.3368183748    -0.3884353395
Bq         1.3825303938    -2.2873270277    -0.3815650697
Bq         1.3806848686    -2.2378356807    -0.3746948000
Bq         1.3788393433    -2.1883443337    -0.3678245302
Bq         1.3769938180    -2.1388529867    -0.3609542604
Bq         1.3751482927    -2.0893616397    -0.3540839906
Bq         1.3733027675    -2.0398702926    -0.3472137208
Bq         1.3714572422    -1.9903789456    -0.3403434511
Bq         1.3696117169    -1.9408875986    -0.3334731813
Bq         1.3677661917    -1.8913962516    -0.3266029115
Bq         1.3659206664    -1.8419049046    -0.3197326417
Bq         1.3640751411    -1.7924135576    -0.3128623719
Bq         1.3622296159    -1.7429222105    -0.3059921022
Bq         1.3603840906    -1.6934308635    -0.2991218324
Bq         1.3585385653    -1.6439395165    -0.2922515626
Bq         1.3566930401    -1.5944481695    -0.2853812928
Bq         1.3548475148    -1.5449568225    -0.2785110230
Bq         1.3530019895    -1.4954654754    -0.2716407533
Bq         1.3511564643    -1.4459741284    -0.2647704835
Bq         1.3493109390    -1.3964827814    -0.2579002137
Bq         1.3474654137    -1.3469914344    -0.2510299439
Bq         1.3456198885    -1.2975000874    -0.2441596742
Bq         1.3437743632    -1.2480087404    -0.2372894044
Bq         1.3419288379    -1.1985173933    -0.2304191346
Bq         1.3400833127    -1.1490260463    -0.2235488648
Bq         1.3382377874    -1.0995346993    -0.2166785950
Bq         1.3363922621    -1.0500433523    -0.2098083253
Bq         1.3345467369    -1.0005520053    -0.2029380555
Bq         1.3327012116    -0.9510606583    -0.1960677857
Bq         1.3308556863    -0.9015693112    -0.1891975159
Bq         1.3290101611    -0.8520779642    -0.1823272461
Bq         1.3271646358    -0.8025866172    -0.1754569764
Bq         1.3253191105    -0.7530952702    -0.1685867066
Bq         1.3234735853    -0.7036039232    -0.1617164368
Bq         1.3216280600    -0.6541125761    -0.1548461670
Bq         1.3197825347    -0.6046212291    -0.1479758972
Bq         1.3179370095    -0.5551298821    -0.1411056275
Bq         1.3160914842    -0.5056385351    -0.1342353577
Bq         1.3142459589    -0.4561471881    -0.1273650879
Bq         1.3124004336    -0.4066558411    -0.1204948181
Bq         1.3105549084    -0.3571644940    -0.1136245483
Bq         1.3087093831    -0.3076731470    -0.1067542786
Bq         1.3068638578    -0.2581818000    -0.0998840088
Bq         1.3050183326    -0.2086904530    -0.0930137390
Bq         1.3031728073    -0.1591991060    -0.0861434692
Bq         1.3013272820    -0.1097077589    -0.0792731994
Bq         1.2994817568    -0.0602164119    -0.0724029297
Bq         1.2976362315    -0.0107250649    -0.0655326599
Bq         1.2957907062     0.0387662821    -0.0586623901
Bq         1.2939451810     0.0882576291    -0.0517921203
Bq         1.2920996557     0.1377489761    -0.0449218505
Bq         1.2902541304     0.1872403232    -0.0380515808
Bq         1.2884086052     0.2367316702    -0.0311813110
Bq         1.2865630799     0.2862230172    -0.0243110412
Bq         1.2847175546     0.3357143642    -0.0174407714
Bq         1.2828720294     0.3852057112    -0.0105705017
Bq         1.2810265041     0.4346970583    -0.0037002319
Bq         1.2791809788     0.4841884053     0.0031700379
Bq         1.2773354536     0.5336797523     0.0100403077
Bq         1.2754899283     0.5831710993     0.0169105775
Bq         1.2736444030     0.6326624463     0.0237808472
Bq         1.2717988778     0.6821537933     0.0306511170

1
2
3
4
5
6
7
8
9
10
11
12
13
14
15
16
17
18
19
20
21
22
23
24
25
26
27
28
29
30
31
32
33
34
35
36
37
38
39
40
41
42
43
44
45
46
47
48
49
50
51
52
53
54
55
56
57
58
59
60
61
62
63
64
65
66
67
68
69
70
71
72
73
74
75
76
77
78
79
80
81
82
83
84
85
86
87
88
89
90
91
92
93
94
95
96
97
98
99
100
101
102
103
104
105
106
107
108
109
110
111
112
113
114
115
116
117
118
119
120
121
122
123
124
125
126
127
128
129
130
131
132
133
134
135
136
137
138
139
140
141
142
143
144
145
146
147
148
149
150
151
152
153
154
155
156
157
158
159
160
161
162
163
164
165
166
167
168
169
170
171
172
173
174
175
176
177
178
179
180
181
182
183
184
185
186
187
188
189
190
191
192
193
194
195
196
197
198
199
200
201
202
203
204
205
206
207
208
209
210
211
212
213
214
215
216
217
218
219
220
221
222
223
224
225
226
227
228
229
230
231
232
233
234
235
236

