%nproc=8
%mem=1000MB
# rb3lyp/6-311+g** NMR geom=connectivity

Title

0 1
C    -4.0500558   -0.5771862    0.8136712
H    -5.0263804   -1.0082727    1.0024760
C    -3.9381552    0.6617804    0.2400876
H    -4.8252424    1.2338890   -0.0111295
C    -2.6768410    1.2433246    0.0057578
C    -1.4974121    0.5051527    0.2848253
C    -1.6508332   -0.7338728    0.9404026
H    -0.7713646   -1.2730967    1.2633753
C    -2.8898548   -1.2624035    1.1994307
H    -2.9683706   -2.2124563    1.7152676
C    -2.5773185    2.5963696   -0.4192930
H    -3.4870728    3.1412239   -0.6474055
C    -1.3741895    3.2147896   -0.4364030
H    -1.2997315    4.2742019   -0.6578144
C    -0.1719488    2.4994090   -0.1734588
C    -0.2043917    1.1018437    0.0192689
C     1.0513491    3.2042560   -0.0676222
H     1.0427344    4.2819499   -0.1896997
C     2.1942091    2.5487446    0.2579577
H     3.1168527    3.0912848    0.4334727
C     2.2216473    1.1336562    0.2934990
C     1.0486931    0.3945528    0.0302412
C     3.4483363    0.4614633    0.5573939
H     4.3095794    1.0606054    0.8334846
C     3.5427346   -0.8855926    0.4749463
H     4.4731467   -1.3939704    0.7038822
C     2.4490052   -1.6474447   -0.0196319
C     1.2150704   -1.0057258   -0.3013573
C     0.2531113   -1.7434440   -1.0216591
H    -0.6541356   -1.2535051   -1.3462847
C     0.4494193   -3.0628597   -1.3413779
H    -0.3083162   -3.5944309   -1.9054060
C     1.6251726   -3.7207967   -0.9552541
H     1.7670048   -4.7687404   -1.1927019
C     2.6109872   -3.0144177   -0.3183050
H     3.5525612   -3.4902813   -0.0646367
Bq        -0.5507816903    -0.5343147618    -1.0055568501
Bq        -0.5562849270    -0.4861182704    -0.9934402248
Bq        -0.5617881637    -0.4379217791    -0.9813235996
Bq        -0.5672914004    -0.3897252877    -0.9692069744
Bq        -0.5727946371    -0.3415287964    -0.9570903491
Bq        -0.5782978738    -0.2933323050    -0.9449737239
Bq        -0.5838011105    -0.2451358137    -0.9328570987
Bq        -0.5893043472    -0.1969393223    -0.9207404734
Bq        -0.5948075838    -0.1487428310    -0.9086238482
Bq        -0.6003108205    -0.1005463396    -0.8965072230
Bq        -0.6058140572    -0.0523498482    -0.8843905978
Bq        -0.6113172939    -0.0041533569    -0.8722739725
Bq        -0.6168205306     0.0440431345    -0.8601573473
Bq        -0.0209724253    -4.7756060011    -2.0511431764
Bq        -0.0264756620    -4.7274095098    -2.0390265512
Bq        -0.0319788987    -4.6792130184    -2.0269099259
Bq        -0.0374821354    -4.6310165271    -2.0147933007
Bq        -0.0429853721    -4.5828200357    -2.0026766755
Bq        -0.0484886088    -4.5346235444    -1.9905600502
Bq        -0.0539918454    -4.4864270530    -1.9784434250
Bq        -0.0594950821    -4.4382305616    -1.9663267998
Bq        -0.0649983188    -4.3900340703    -1.9542101746
Bq        -0.0705015555    -4.3418375789    -1.9420935493
Bq        -0.0760047922    -4.2936410876    -1.9299769241
Bq        -0.0815080289    -4.2454445962    -1.9178602989
Bq        -0.0870112656    -4.1972481049    -1.9057436736
Bq        -0.0925145022    -4.1490516135    -1.8936270484
Bq        -0.0980177389    -4.1008551222    -1.8815104232
Bq        -0.1035209756    -4.0526586308    -1.8693937980
Bq        -0.1090242123    -4.0044621394    -1.8572771727
Bq        -0.1145274490    -3.9562656481    -1.8451605475
Bq        -0.1200306857    -3.9080691567    -1.8330439223
Bq        -0.1255339224    -3.8598726654    -1.8209272970
Bq        -0.1310371590    -3.8116761740    -1.8088106718
Bq        -0.1365403957    -3.7634796827    -1.7966940466
Bq        -0.1420436324    -3.7152831913    -1.7845774214
Bq        -0.1475468691    -3.6670866999    -1.7724607961
Bq        -0.1530501058    -3.6188902086    -1.7603441709
Bq        -0.1585533425    -3.5706937172    -1.7482275457
Bq        -0.1640565792    -3.5224972259    -1.7361109204
Bq        -0.1695598158    -3.4743007345    -1.7239942952
Bq        -0.1750630525    -3.4261042432    -1.7118776700
Bq        -0.1805662892    -3.3779077518    -1.6997610447
Bq        -0.1860695259    -3.3297112605    -1.6876444195
Bq        -0.1915727626    -3.2815147691    -1.6755277943
Bq        -0.1970759993    -3.2333182777    -1.6634111691
Bq        -0.2025792360    -3.1851217864    -1.6512945438
Bq        -0.2080824726    -3.1369252950    -1.6391779186
Bq        -0.2135857093    -3.0887288037    -1.6270612934
Bq        -0.2190889460    -3.0405323123    -1.6149446681
Bq        -0.2245921827    -2.9923358210    -1.6028280429
Bq        -0.2300954194    -2.9441393296    -1.5907114177
Bq        -0.2355986561    -2.8959428383    -1.5785947925
Bq        -0.2411018928    -2.8477463469    -1.5664781672
Bq        -0.2466051294    -2.7995498555    -1.5543615420
Bq        -0.2521083661    -2.7513533642    -1.5422449168
Bq        -0.2576116028    -2.7031568728    -1.5301282915
Bq        -0.2631148395    -2.6549603815    -1.5180116663
Bq        -0.2686180762    -2.6067638901    -1.5058950411
Bq        -0.2741213129    -2.5585673988    -1.4937784159
Bq        -0.2796245496    -2.5103709074    -1.4816617906
Bq        -0.2851277863    -2.4621744160    -1.4695451654
Bq        -0.2906310229    -2.4139779247    -1.4574285402
Bq        -0.2961342596    -2.3657814333    -1.4453119149
Bq        -0.3016374963    -2.3175849420    -1.4331952897
Bq        -0.3071407330    -2.2693884506    -1.4210786645
Bq        -0.3126439697    -2.2211919593    -1.4089620393
Bq        -0.3181472064    -2.1729954679    -1.3968454140
Bq        -0.3236504431    -2.1247989766    -1.3847287888
Bq        -0.3291536797    -2.0766024852    -1.3726121636
Bq        -0.3346569164    -2.0284059938    -1.3604955383
Bq        -0.3401601531    -1.9802095025    -1.3483789131
Bq        -0.3456633898    -1.9320130111    -1.3362622879
Bq        -0.3511666265    -1.8838165198    -1.3241456626
Bq        -0.3566698632    -1.8356200284    -1.3120290374
Bq        -0.3621730999    -1.7874235371    -1.2999124122
Bq        -0.3676763365    -1.7392270457    -1.2877957870
Bq        -0.3731795732    -1.6910305543    -1.2756791617
Bq        -0.3786828099    -1.6428340630    -1.2635625365
Bq        -0.3841860466    -1.5946375716    -1.2514459113
Bq        -0.3896892833    -1.5464410803    -1.2393292860
Bq        -0.3951925200    -1.4982445889    -1.2272126608
Bq        -0.4006957567    -1.4500480976    -1.2150960356
Bq        -0.4061989933    -1.4018516062    -1.2029794104
Bq        -0.4117022300    -1.3536551149    -1.1908627851
Bq        -0.4172054667    -1.3054586235    -1.1787461599
Bq        -0.4227087034    -1.2572621321    -1.1666295347
Bq        -0.4282119401    -1.2090656408    -1.1545129094
Bq        -0.4337151768    -1.1608691494    -1.1423962842
Bq        -0.4392184135    -1.1126726581    -1.1302796590
Bq        -0.4447216501    -1.0644761667    -1.1181630338
Bq        -0.4502248868    -1.0162796754    -1.1060464085
Bq        -0.4557281235    -0.9680831840    -1.0939297833
Bq        -0.4612313602    -0.9198866927    -1.0818131581
Bq        -0.4667345969    -0.8716902013    -1.0696965328
Bq        -0.4722378336    -0.8234937099    -1.0575799076
Bq        -0.4777410703    -0.7752972186    -1.0454632824
Bq        -0.4832443069    -0.7271007272    -1.0333466572
Bq        -0.4887475436    -0.6789042359    -1.0212300319
Bq        -0.4942507803    -0.6307077445    -1.0091134067
Bq        -0.4997540170    -0.5825112532    -0.9969967815
Bq        -0.5052572537    -0.5343147618    -0.9848801562
Bq        -0.5107604904    -0.4861182704    -0.9727635310
Bq        -0.5162637271    -0.4379217791    -0.9606469058
Bq        -0.5217669638    -0.3897252877    -0.9485302805
Bq        -0.5272702004    -0.3415287964    -0.9364136553
Bq        -0.5327734371    -0.2933323050    -0.9242970301
Bq        -0.5382766738    -0.2451358137    -0.9121804049
Bq        -0.5437799105    -0.1969393223    -0.9000637796
Bq        -0.5492831472    -0.1487428310    -0.8879471544
Bq        -0.5547863839    -0.1005463396    -0.8758305292
Bq        -0.5602896206    -0.0523498482    -0.8637139039
Bq        -0.5657928572    -0.0041533569    -0.8515972787
Bq        -0.5712960939     0.0440431345    -0.8394806535
Bq         0.0245520113    -4.7756060011    -2.0304664826
Bq         0.0190487746    -4.7274095098    -2.0183498573
Bq         0.0135455380    -4.6792130184    -2.0062332321
Bq         0.0080423013    -4.6310165271    -1.9941166069
Bq         0.0025390646    -4.5828200357    -1.9819999817
Bq        -0.0029641721    -4.5346235444    -1.9698833564
Bq        -0.0084674088    -4.4864270530    -1.9577667312
Bq        -0.0139706455    -4.4382305616    -1.9456501060
Bq        -0.0194738822    -4.3900340703    -1.9335334807
Bq        -0.0249771188    -4.3418375789    -1.9214168555
Bq        -0.0304803555    -4.2936410876    -1.9093002303
Bq        -0.0359835922    -4.2454445962    -1.8971836051
Bq        -0.0414868289    -4.1972481049    -1.8850669798
Bq        -0.0469900656    -4.1490516135    -1.8729503546
Bq        -0.0524933023    -4.1008551222    -1.8608337294
Bq        -0.0579965390    -4.0526586308    -1.8487171041
Bq        -0.0634997756    -4.0044621394    -1.8366004789
Bq        -0.0690030123    -3.9562656481    -1.8244838537
Bq        -0.0745062490    -3.9080691567    -1.8123672285
Bq        -0.0800094857    -3.8598726654    -1.8002506032
Bq        -0.0855127224    -3.8116761740    -1.7881339780
Bq        -0.0910159591    -3.7634796827    -1.7760173528
Bq        -0.0965191958    -3.7152831913    -1.7639007275
Bq        -0.1020224324    -3.6670866999    -1.7517841023
Bq        -0.1075256691    -3.6188902086    -1.7396674771
Bq        -0.1130289058    -3.5706937172    -1.7275508518
Bq        -0.1185321425    -3.5224972259    -1.7154342266
Bq        -0.1240353792    -3.4743007345    -1.7033176014
Bq        -0.1295386159    -3.4261042432    -1.6912009762
Bq        -0.1350418526    -3.3779077518    -1.6790843509
Bq        -0.1405450892    -3.3297112605    -1.6669677257
Bq        -0.1460483259    -3.2815147691    -1.6548511005
Bq        -0.1515515626    -3.2333182777    -1.6427344752
Bq        -0.1570547993    -3.1851217864    -1.6306178500
Bq        -0.1625580360    -3.1369252950    -1.6185012248
Bq        -0.1680612727    -3.0887288037    -1.6063845996
Bq        -0.1735645094    -3.0405323123    -1.5942679743
Bq        -0.1790677460    -2.9923358210    -1.5821513491
Bq        -0.1845709827    -2.9441393296    -1.5700347239
Bq        -0.1900742194    -2.8959428383    -1.5579180986
Bq        -0.1955774561    -2.8477463469    -1.5458014734
Bq        -0.2010806928    -2.7995498555    -1.5336848482
Bq        -0.2065839295    -2.7513533642    -1.5215682230
Bq        -0.2120871662    -2.7031568728    -1.5094515977
Bq        -0.2175904029    -2.6549603815    -1.4973349725
Bq        -0.2230936395    -2.6067638901    -1.4852183473
Bq        -0.2285968762    -2.5585673988    -1.4731017220
Bq        -0.2341001129    -2.5103709074    -1.4609850968
Bq        -0.2396033496    -2.4621744160    -1.4488684716
Bq        -0.2451065863    -2.4139779247    -1.4367518464
Bq        -0.2506098230    -2.3657814333    -1.4246352211
Bq        -0.2561130597    -2.3175849420    -1.4125185959
Bq        -0.2616162963    -2.2693884506    -1.4004019707
Bq        -0.2671195330    -2.2211919593    -1.3882853454
Bq        -0.2726227697    -2.1729954679    -1.3761687202
Bq        -0.2781260064    -2.1247989766    -1.3640520950
Bq        -0.2836292431    -2.0766024852    -1.3519354698
Bq        -0.2891324798    -2.0284059938    -1.3398188445
Bq        -0.2946357165    -1.9802095025    -1.3277022193
Bq        -0.3001389531    -1.9320130111    -1.3155855941
Bq        -0.3056421898    -1.8838165198    -1.3034689688
Bq        -0.3111454265    -1.8356200284    -1.2913523436
Bq        -0.3166486632    -1.7874235371    -1.2792357184
Bq        -0.3221518999    -1.7392270457    -1.2671190931
Bq        -0.3276551366    -1.6910305543    -1.2550024679
Bq        -0.3331583733    -1.6428340630    -1.2428858427
Bq        -0.3386616099    -1.5946375716    -1.2307692175
Bq        -0.3441648466    -1.5464410803    -1.2186525922
Bq        -0.3496680833    -1.4982445889    -1.2065359670
Bq        -0.3551713200    -1.4500480976    -1.1944193418
Bq        -0.3606745567    -1.4018516062    -1.1823027165
Bq        -0.3661777934    -1.3536551149    -1.1701860913
Bq        -0.3716810301    -1.3054586235    -1.1580694661
Bq        -0.3771842667    -1.2572621321    -1.1459528409
Bq        -0.3826875034    -1.2090656408    -1.1338362156
Bq        -0.3881907401    -1.1608691494    -1.1217195904
Bq        -0.3936939768    -1.1126726581    -1.1096029652
Bq        -0.3991972135    -1.0644761667    -1.0974863399
Bq        -0.4047004502    -1.0162796754    -1.0853697147
Bq        -0.4102036869    -0.9680831840    -1.0732530895
Bq        -0.4157069235    -0.9198866927    -1.0611364643
Bq        -0.4212101602    -0.8716902013    -1.0490198390
Bq        -0.4267133969    -0.8234937099    -1.0369032138
Bq        -0.4322166336    -0.7752972186    -1.0247865886
Bq        -0.4377198703    -0.7271007272    -1.0126699633
Bq        -0.4432231070    -0.6789042359    -1.0005533381

1
2
3
4
5
6
7
8
9
10
11
12
13
14
15
16
17
18
19
20
21
22
23
24
25
26
27
28
29
30
31
32
33
34
35
36
37
38
39
40
41
42
43
44
45
46
47
48
49
50
51
52
53
54
55
56
57
58
59
60
61
62
63
64
65
66
67
68
69
70
71
72
73
74
75
76
77
78
79
80
81
82
83
84
85
86
87
88
89
90
91
92
93
94
95
96
97
98
99
100
101
102
103
104
105
106
107
108
109
110
111
112
113
114
115
116
117
118
119
120
121
122
123
124
125
126
127
128
129
130
131
132
133
134
135
136
137
138
139
140
141
142
143
144
145
146
147
148
149
150
151
152
153
154
155
156
157
158
159
160
161
162
163
164
165
166
167
168
169
170
171
172
173
174
175
176
177
178
179
180
181
182
183
184
185
186
187
188
189
190
191
192
193
194
195
196
197
198
199
200
201
202
203
204
205
206
207
208
209
210
211
212
213
214
215
216
217
218
219
220
221
222
223
224
225
226
227
228
229
230
231
232
233
234
235
236

