%nproc=8
%mem=1000MB
# rb3lyp/6-311+g** NMR geom=connectivity

Title

0 1
C    -4.0500558   -0.5771862    0.8136712
H    -5.0263804   -1.0082727    1.0024760
C    -3.9381552    0.6617804    0.2400876
H    -4.8252424    1.2338890   -0.0111295
C    -2.6768410    1.2433246    0.0057578
C    -1.4974121    0.5051527    0.2848253
C    -1.6508332   -0.7338728    0.9404026
H    -0.7713646   -1.2730967    1.2633753
C    -2.8898548   -1.2624035    1.1994307
H    -2.9683706   -2.2124563    1.7152676
C    -2.5773185    2.5963696   -0.4192930
H    -3.4870728    3.1412239   -0.6474055
C    -1.3741895    3.2147896   -0.4364030
H    -1.2997315    4.2742019   -0.6578144
C    -0.1719488    2.4994090   -0.1734588
C    -0.2043917    1.1018437    0.0192689
C     1.0513491    3.2042560   -0.0676222
H     1.0427344    4.2819499   -0.1896997
C     2.1942091    2.5487446    0.2579577
H     3.1168527    3.0912848    0.4334727
C     2.2216473    1.1336562    0.2934990
C     1.0486931    0.3945528    0.0302412
C     3.4483363    0.4614633    0.5573939
H     4.3095794    1.0606054    0.8334846
C     3.5427346   -0.8855926    0.4749463
H     4.4731467   -1.3939704    0.7038822
C     2.4490052   -1.6474447   -0.0196319
C     1.2150704   -1.0057258   -0.3013573
C     0.2531113   -1.7434440   -1.0216591
H    -0.6541356   -1.2535051   -1.3462847
C     0.4494193   -3.0628597   -1.3413779
H    -0.3083162   -3.5944309   -1.9054060
C     1.6251726   -3.7207967   -0.9552541
H     1.7670048   -4.7687404   -1.1927019
C     2.6109872   -3.0144177   -0.3183050
H     3.5525612   -3.4902813   -0.0646367
Bq        -1.3364338710    -1.3779716901     1.2386315893
Bq        -1.3363484048    -1.3329459937     1.2168903988
Bq        -1.3362629387    -1.2879202974     1.1951492083
Bq        -1.3361774726    -1.2428946011     1.1734080178
Bq        -1.3360920064    -1.1978689047     1.1516668273
Bq        -1.3360065403    -1.1528432084     1.1299256367
Bq        -1.3359210741    -1.1078175120     1.1081844462
Bq        -1.3358356080    -1.0627918157     1.0864432557
Bq        -1.3357501419    -1.0177661194     1.0647020652
Bq        -1.3356646757    -0.9727404230     1.0429608747
Bq        -1.3355792096    -0.9277147267     1.0212196842
Bq        -1.3354937435    -0.8826890304     0.9994784936
Bq        -1.3354082773    -0.8376633340     0.9777373031
Bq        -1.3353228112    -0.7926376377     0.9559961126
Bq        -1.3352373451    -0.7476119414     0.9342549221
Bq        -1.3351518789    -0.7025862450     0.9125137316
Bq        -1.3350664128    -0.6575605487     0.8907725411
Bq        -1.3349809466    -0.6125348524     0.8690313505
Bq        -1.3348954805    -0.5675091560     0.8472901600
Bq        -1.3348100144    -0.5224834597     0.8255489695
Bq        -1.3347245482    -0.4774577634     0.8038077790
Bq        -1.3346390821    -0.4324320670     0.7820665885
Bq        -1.3345536160    -0.3874063707     0.7603253980
Bq        -1.3344681498    -0.3423806743     0.7385842074
Bq        -1.3343826837    -0.2973549780     0.7168430169
Bq        -1.3342972175    -0.2523292817     0.6951018264
Bq        -1.3342117514    -0.2073035853     0.6733606359
Bq        -1.3341262853    -0.1622778890     0.6516194454
Bq        -1.3340408191    -0.1172521927     0.6298782549
Bq        -1.3339553530    -0.0722264963     0.6081370643
Bq        -1.3338698869    -0.0272008000     0.5863958738
Bq        -1.3337844207     0.0178248963     0.5646546833
Bq        -1.3336989546     0.0628505927     0.5429134928
Bq        -1.3336134884     0.1078762890     0.5211723023
Bq        -1.3335280223     0.1529019853     0.4994311118
Bq        -1.3334425562     0.1979276817     0.4776899212
Bq        -1.3333570900     0.2429533780     0.4559487307
Bq        -1.3332716239     0.2879790743     0.4342075402
Bq        -1.3331861578     0.3330047707     0.4124663497
Bq        -1.3331006916     0.3780304670     0.3907251592
Bq        -1.3330152255     0.4230561634     0.3689839687
Bq        -1.3329297593     0.4680818597     0.3472427782
Bq        -1.3328442932     0.5131075560     0.3255015876
Bq        -1.3327588271     0.5581332524     0.3037603971
Bq        -1.3326733609     0.6031589487     0.2820192066
Bq        -1.3325878948     0.6481846450     0.2602780161
Bq        -1.3325024287     0.6932103414     0.2385368256
Bq        -1.3324169625     0.7382360377     0.2167956351
Bq        -1.3323314964     0.7832617340     0.1950544445
Bq        -1.3322460302     0.8282874304     0.1733132540
Bq        -1.3321605641     0.8733131267     0.1515720635
Bq        -1.3320750980     0.9183388230     0.1298308730
Bq        -1.3319896318     0.9633645194     0.1080896825
Bq        -1.3319041657     1.0083902157     0.0863484920
Bq        -1.3318186996     1.0534159120     0.0646073014
Bq        -1.3317332334     1.0984416084     0.0428661109
Bq        -1.3316477673     1.1434673047     0.0211249204
Bq        -1.3315623011     1.1884930011    -0.0006162701
Bq        -1.3314768350     1.2335186974    -0.0223574606
Bq        -1.3313913689     1.2785443937    -0.0440986511
Bq        -1.3313059027     1.3235700901    -0.0658398417
Bq        -1.3312204366     1.3685957864    -0.0875810322
Bq        -1.3311349705     1.4136214827    -0.1093222227
Bq        -1.3310495043     1.4586471791    -0.1310634132
Bq        -1.3309640382     1.5036728754    -0.1528046037
Bq        -1.3308785720     1.5486985717    -0.1745457942
Bq        -1.3307931059     1.5937242681    -0.1962869848
Bq        -1.3307076398     1.6387499644    -0.2180281753
Bq        -1.3306221736     1.6837756607    -0.2397693658
Bq        -1.3305367075     1.7288013571    -0.2615105563
Bq        -1.3304512414     1.7738270534    -0.2832517468
Bq        -1.3303657752     1.8188527497    -0.3049929373
Bq        -1.3302803091     1.8638784461    -0.3267341279
Bq        -1.3301948429     1.9089041424    -0.3484753184
Bq        -1.3301093768     1.9539298388    -0.3702165089
Bq        -1.3300239107     1.9989555351    -0.3919576994
Bq        -1.3299384445     2.0439812314    -0.4136988899
Bq        -1.3298529784     2.0890069278    -0.4354400804
Bq        -1.3297675123     2.1340326241    -0.4571812710
Bq        -1.3296820461     2.1790583204    -0.4789224615
Bq        -1.3295965800     2.2240840168    -0.5006636520
Bq        -1.2881435800    -2.2784856168     1.6736519516
Bq        -1.2880581139    -2.2334599204     1.6519107611
Bq        -1.2879726478    -2.1884342241     1.6301695706
Bq        -1.2878871816    -2.1434085278     1.6084283801
Bq        -1.2878017155    -2.0983828314     1.5866871895
Bq        -1.2877162494    -2.0533571351     1.5649459990
Bq        -1.2876307832    -2.0083314388     1.5432048085
Bq        -1.2875453171    -1.9633057424     1.5214636180
Bq        -1.2874598510    -1.9182800461     1.4997224275
Bq        -1.2873743848    -1.8732543497     1.4779812370
Bq        -1.2872889187    -1.8282286534     1.4562400464
Bq        -1.2872034525    -1.7832029571     1.4344988559
Bq        -1.2871179864    -1.7381772607     1.4127576654
Bq        -1.2870325203    -1.6931515644     1.3910164749
Bq        -1.2869470541    -1.6481258681     1.3692752844
Bq        -1.2868615880    -1.6031001717     1.3475340939
Bq        -1.2867761219    -1.5580744754     1.3257929034
Bq        -1.2866906557    -1.5130487791     1.3040517128
Bq        -1.2866051896    -1.4680230827     1.2823105223
Bq        -1.2865197234    -1.4229973864     1.2605693318
Bq        -1.2864342573    -1.3779716901     1.2388281413
Bq        -1.2863487912    -1.3329459937     1.2170869508
Bq        -1.2862633250    -1.2879202974     1.1953457603
Bq        -1.2861778589    -1.2428946011     1.1736045697
Bq        -1.2860923928    -1.1978689047     1.1518633792
Bq        -1.2860069266    -1.1528432084     1.1301221887
Bq        -1.2859214605    -1.1078175120     1.1083809982
Bq        -1.2858359943    -1.0627918157     1.0866398077
Bq        -1.2857505282    -1.0177661194     1.0648986172
Bq        -1.2856650621    -0.9727404230     1.0431574266
Bq        -1.2855795959    -0.9277147267     1.0214162361
Bq        -1.2854941298    -0.8826890304     0.9996750456
Bq        -1.2854086637    -0.8376633340     0.9779338551
Bq        -1.2853231975    -0.7926376377     0.9561926646
Bq        -1.2852377314    -0.7476119414     0.9344514741
Bq        -1.2851522652    -0.7025862450     0.9127102835
Bq        -1.2850667991    -0.6575605487     0.8909690930
Bq        -1.2849813330    -0.6125348524     0.8692279025
Bq        -1.2848958668    -0.5675091560     0.8474867120
Bq        -1.2848104007    -0.5224834597     0.8257455215
Bq        -1.2847249346    -0.4774577634     0.8040043310
Bq        -1.2846394684    -0.4324320670     0.7822631404
Bq        -1.2845540023    -0.3874063707     0.7605219499
Bq        -1.2844685361    -0.3423806743     0.7387807594
Bq        -1.2843830700    -0.2973549780     0.7170395689
Bq        -1.2842976039    -0.2523292817     0.6952983784
Bq        -1.2842121377    -0.2073035853     0.6735571879
Bq        -1.2841266716    -0.1622778890     0.6518159973
Bq        -1.2840412055    -0.1172521927     0.6300748068
Bq        -1.2839557393    -0.0722264963     0.6083336163
Bq        -1.2838702732    -0.0272008000     0.5865924258
Bq        -1.2837848070     0.0178248963     0.5648512353
Bq        -1.2836993409     0.0628505927     0.5431100448
Bq        -1.2836138748     0.1078762890     0.5213688543
Bq        -1.2835284086     0.1529019853     0.4996276637
Bq        -1.2834429425     0.1979276817     0.4778864732
Bq        -1.2833574764     0.2429533780     0.4561452827
Bq        -1.2832720102     0.2879790743     0.4344040922
Bq        -1.2831865441     0.3330047707     0.4126629017
Bq        -1.2831010779     0.3780304670     0.3909217112
Bq        -1.2830156118     0.4230561634     0.3691805206
Bq        -1.2829301457     0.4680818597     0.3474393301
Bq        -1.2828446795     0.5131075560     0.3256981396
Bq        -1.2827592134     0.5581332524     0.3039569491
Bq        -1.2826737473     0.6031589487     0.2822157586
Bq        -1.2825882811     0.6481846450     0.2604745681
Bq        -1.2825028150     0.6932103414     0.2387333775
Bq        -1.2824173488     0.7382360377     0.2169921870
Bq        -1.2823318827     0.7832617340     0.1952509965
Bq        -1.2822464166     0.8282874304     0.1735098060
Bq        -1.2821609504     0.8733131267     0.1517686155
Bq        -1.2820754843     0.9183388230     0.1300274250
Bq        -1.2819900182     0.9633645194     0.1082862344
Bq        -1.2819045520     1.0083902157     0.0865450439
Bq        -1.2818190859     1.0534159120     0.0648038534
Bq        -1.2817336197     1.0984416084     0.0430626629
Bq        -1.2816481536     1.1434673047     0.0213214724
Bq        -1.2815626875     1.1884930011    -0.0004197181
Bq        -1.2814772213     1.2335186974    -0.0221609087
Bq        -1.2813917552     1.2785443937    -0.0439020992
Bq        -1.2813062891     1.3235700901    -0.0656432897
Bq        -1.2812208229     1.3685957864    -0.0873844802
Bq        -1.2811353568     1.4136214827    -0.1091256707
Bq        -1.2810498906     1.4586471791    -0.1308668612
Bq        -1.2809644245     1.5036728754    -0.1526080518
Bq        -1.2808789584     1.5486985717    -0.1743492423
Bq        -1.2807934922     1.5937242681    -0.1960904328
Bq        -1.2807080261     1.6387499644    -0.2178316233
Bq        -1.2806225600     1.6837756607    -0.2395728138
Bq        -1.2805370938     1.7288013571    -0.2613140043
Bq        -1.2804516277     1.7738270534    -0.2830551948
Bq        -1.2803661615     1.8188527497    -0.3047963854
Bq        -1.2802806954     1.8638784461    -0.3265375759
Bq        -1.2801952293     1.9089041424    -0.3482787664
Bq        -1.2801097631     1.9539298388    -0.3700199569
Bq        -1.2800242970     1.9989555351    -0.3917611474
Bq        -1.2799388309     2.0439812314    -0.4135023379
Bq        -1.2798533647     2.0890069278    -0.4352435285
Bq        -1.2797678986     2.1340326241    -0.4569847190
Bq        -1.2796824325     2.1790583204    -0.4787259095
Bq        -1.2795969663     2.2240840168    -0.5004671000
Bq        -1.2381439664    -2.2784856168     1.6738485036
Bq        -1.2380585002    -2.2334599204     1.6521073131
Bq        -1.2379730341    -2.1884342241     1.6303661226
Bq        -1.2378875680    -2.1434085278     1.6086249320
Bq        -1.2378021018    -2.0983828314     1.5868837415
Bq        -1.2377166357    -2.0533571351     1.5651425510
Bq        -1.2376311696    -2.0083314388     1.5434013605
Bq        -1.2375457034    -1.9633057424     1.5216601700
Bq        -1.2374602373    -1.9182800461     1.4999189795
Bq        -1.2373747711    -1.8732543497     1.4781777889
Bq        -1.2372893050    -1.8282286534     1.4564365984
Bq        -1.2372038389    -1.7832029571     1.4346954079
Bq        -1.2371183727    -1.7381772607     1.4129542174
Bq        -1.2370329066    -1.6931515644     1.3912130269
Bq        -1.2369474405    -1.6481258681     1.3694718364
Bq        -1.2368619743    -1.6031001717     1.3477306458
Bq        -1.2367765082    -1.5580744754     1.3259894553
Bq        -1.2366910420    -1.5130487791     1.3042482648

1
2
3
4
5
6
7
8
9
10
11
12
13
14
15
16
17
18
19
20
21
22
23
24
25
26
27
28
29
30
31
32
33
34
35
36
37
38
39
40
41
42
43
44
45
46
47
48
49
50
51
52
53
54
55
56
57
58
59
60
61
62
63
64
65
66
67
68
69
70
71
72
73
74
75
76
77
78
79
80
81
82
83
84
85
86
87
88
89
90
91
92
93
94
95
96
97
98
99
100
101
102
103
104
105
106
107
108
109
110
111
112
113
114
115
116
117
118
119
120
121
122
123
124
125
126
127
128
129
130
131
132
133
134
135
136
137
138
139
140
141
142
143
144
145
146
147
148
149
150
151
152
153
154
155
156
157
158
159
160
161
162
163
164
165
166
167
168
169
170
171
172
173
174
175
176
177
178
179
180
181
182
183
184
185
186
187
188
189
190
191
192
193
194
195
196
197
198
199
200
201
202
203
204
205
206
207
208
209
210
211
212
213
214
215
216
217
218
219
220
221
222
223
224
225
226
227
228
229
230
231
232
233
234
235
236

