%nproc=8
%mem=1000MB
# rb3lyp/6-311+g** NMR geom=connectivity

Title

0 1
C    -4.0500558   -0.5771862    0.8136712
H    -5.0263804   -1.0082727    1.0024760
C    -3.9381552    0.6617804    0.2400876
H    -4.8252424    1.2338890   -0.0111295
C    -2.6768410    1.2433246    0.0057578
C    -1.4974121    0.5051527    0.2848253
C    -1.6508332   -0.7338728    0.9404026
H    -0.7713646   -1.2730967    1.2633753
C    -2.8898548   -1.2624035    1.1994307
H    -2.9683706   -2.2124563    1.7152676
C    -2.5773185    2.5963696   -0.4192930
H    -3.4870728    3.1412239   -0.6474055
C    -1.3741895    3.2147896   -0.4364030
H    -1.2997315    4.2742019   -0.6578144
C    -0.1719488    2.4994090   -0.1734588
C    -0.2043917    1.1018437    0.0192689
C     1.0513491    3.2042560   -0.0676222
H     1.0427344    4.2819499   -0.1896997
C     2.1942091    2.5487446    0.2579577
H     3.1168527    3.0912848    0.4334727
C     2.2216473    1.1336562    0.2934990
C     1.0486931    0.3945528    0.0302412
C     3.4483363    0.4614633    0.5573939
H     4.3095794    1.0606054    0.8334846
C     3.5427346   -0.8855926    0.4749463
H     4.4731467   -1.3939704    0.7038822
C     2.4490052   -1.6474447   -0.0196319
C     1.2150704   -1.0057258   -0.3013573
C     0.2531113   -1.7434440   -1.0216591
H    -0.6541356   -1.2535051   -1.3462847
C     0.4494193   -3.0628597   -1.3413779
H    -0.3083162   -3.5944309   -1.9054060
C     1.6251726   -3.7207967   -0.9552541
H     1.7670048   -4.7687404   -1.1927019
C     2.6109872   -3.0144177   -0.3183050
H     3.5525612   -3.4902813   -0.0646367
Bq        -3.8417411119     4.1867041665    -0.8057044709
Bq        -3.8412546347     4.2351740825    -0.8179694856
Bq        -3.8407681576     4.2836439985    -0.8302345003
Bq        -3.8394551529    -0.5633475985     0.3982486029
Bq        -3.8389686758    -0.5148776825     0.3859835882
Bq        -3.8384821987    -0.4664077665     0.3737185735
Bq        -3.8379957216    -0.4179378506     0.3614535588
Bq        -3.8375092445    -0.3694679346     0.3491885441
Bq        -3.8370227674    -0.3209980186     0.3369235294
Bq        -3.8365362903    -0.2725281027     0.3246585147
Bq        -3.8360498131    -0.2240581867     0.3123934999
Bq        -3.8355633360    -0.1755882707     0.3001284852
Bq        -3.8350768589    -0.1271183548     0.2878634705
Bq        -3.8345903818    -0.0786484388     0.2755984558
Bq        -3.8341039047    -0.0301785228     0.2633334411
Bq        -3.8336174276     0.0182913932     0.2510684264
Bq        -3.8331309505     0.0667613091     0.2388034117
Bq        -3.8326444734     0.1152312251     0.2265383970
Bq        -3.8321579963     0.1637011411     0.2142733822
Bq        -3.8316715191     0.2121710570     0.2020083675
Bq        -3.8311850420     0.2606409730     0.1897433528
Bq        -3.8306985649     0.3091108890     0.1774783381
Bq        -3.8302120878     0.3575808049     0.1652133234
Bq        -3.8297256107     0.4060507209     0.1529483087
Bq        -3.8292391336     0.4545206369     0.1406832940
Bq        -3.8287526565     0.5029905529     0.1284182792
Bq        -3.8282661794     0.5514604688     0.1161532645
Bq        -3.8277797022     0.5999303848     0.1038882498
Bq        -3.8272932251     0.6484003008     0.0916232351
Bq        -3.8268067480     0.6968702167     0.0793582204
Bq        -3.8263202709     0.7453401327     0.0670932057
Bq        -3.8258337938     0.7938100487     0.0548281910
Bq        -3.8253473167     0.8422799646     0.0425631762
Bq        -3.8248608396     0.8907498806     0.0302981615
Bq        -3.8243743625     0.9392197966     0.0180331468
Bq        -3.8238878853     0.9876897125     0.0057681321
Bq        -3.8234014082     1.0361596285    -0.0064968826
Bq        -3.8229149311     1.0846295445    -0.0187618973
Bq        -3.8224284540     1.1330994605    -0.0310269120
Bq        -3.8219419769     1.1815693764    -0.0432919267
Bq        -3.8214554998     1.2300392924    -0.0555569415
Bq        -3.8209690227     1.2785092084    -0.0678219562
Bq        -3.8204825456     1.3269791243    -0.0800869709
Bq        -3.8199960684     1.3754490403    -0.0923519856
Bq        -3.8195095913     1.4239189563    -0.1046170003
Bq        -3.8190231142     1.4723888722    -0.1168820150
Bq        -3.8185366371     1.5208587882    -0.1291470297
Bq        -3.8180501600     1.5693287042    -0.1414120445
Bq        -3.8175636829     1.6177986202    -0.1536770592
Bq        -3.8170772058     1.6662685361    -0.1659420739
Bq        -3.8165907287     1.7147384521    -0.1782070886
Bq        -3.8161042515     1.7632083681    -0.1904721033
Bq        -3.8156177744     1.8116782840    -0.2027371180
Bq        -3.8151312973     1.8601482000    -0.2150021327
Bq        -3.8146448202     1.9086181160    -0.2272671475
Bq        -3.8141583431     1.9570880319    -0.2395321622
Bq        -3.8136718660     2.0055579479    -0.2517971769
Bq        -3.8131853889     2.0540278639    -0.2640621916
Bq        -3.8126989118     2.1024977798    -0.2763272063
Bq        -3.8122124347     2.1509676958    -0.2885922210
Bq        -3.8117259575     2.1994376118    -0.3008572357
Bq        -3.8112394804     2.2479075278    -0.3131222504
Bq        -3.8107530033     2.2963774437    -0.3253872652
Bq        -3.8102665262     2.3448473597    -0.3376522799
Bq        -3.8097800491     2.3933172757    -0.3499172946
Bq        -3.8092935720     2.4417871916    -0.3621823093
Bq        -3.8088070949     2.4902571076    -0.3744473240
Bq        -3.8083206178     2.5387270236    -0.3867123387
Bq        -3.8078341406     2.5871969395    -0.3989773534
Bq        -3.8073476635     2.6356668555    -0.4112423682
Bq        -3.8068611864     2.6841367715    -0.4235073829
Bq        -3.8063747093     2.7326066875    -0.4357723976
Bq        -3.8058882322     2.7810766034    -0.4480374123
Bq        -3.8054017551     2.8295465194    -0.4603024270
Bq        -3.8049152780     2.8780164354    -0.4725674417
Bq        -3.8044288009     2.9264863513    -0.4848324564
Bq        -3.8039423237     2.9749562673    -0.4970974711
Bq        -3.8034558466     3.0234261833    -0.5093624859
Bq        -3.8029693695     3.0718960992    -0.5216275006
Bq        -3.8024828924     3.1203660152    -0.5338925153
Bq        -3.8019964153     3.1688359312    -0.5461575300
Bq        -3.8015099382     3.2173058471    -0.5584225447
Bq        -3.8010234611     3.2657757631    -0.5706875594
Bq        -3.8005369840     3.3142456791    -0.5829525741
Bq        -3.8000505068     3.3627155951    -0.5952175889
Bq        -3.7995640297     3.4111855110    -0.6074826036
Bq        -3.7990775526     3.4596554270    -0.6197476183
Bq        -3.7985910755     3.5081253430    -0.6320126330
Bq        -3.7981045984     3.5565952589    -0.6442776477
Bq        -3.7976181213     3.6050651749    -0.6565426624
Bq        -3.7971316442     3.6535350909    -0.6688076771
Bq        -3.7966451671     3.7020050068    -0.6810726919
Bq        -3.7961586899     3.7504749228    -0.6933377066
Bq        -3.7956722128     3.7989448388    -0.7056027213
Bq        -3.7951857357     3.8474147548    -0.7178677360
Bq        -3.7946992586     3.8958846707    -0.7301327507
Bq        -3.7942127815     3.9443545867    -0.7423977654
Bq        -3.7937263044     3.9928245027    -0.7546627801
Bq        -3.7932398273     4.0412944186    -0.7669277948
Bq        -3.7927533502     4.0897643346    -0.7791928096
Bq        -3.7922668730     4.1382342506    -0.7914578243
Bq        -3.7917803959     4.1867041665    -0.8037228390
Bq        -3.7912939188     4.2351740825    -0.8159878537
Bq        -3.7908074417     4.2836439985    -0.8282528684
Bq        -3.7894944370    -0.5633475985     0.4002302349
Bq        -3.7890079599    -0.5148776825     0.3879652202
Bq        -3.7885214828    -0.4664077665     0.3757002054
Bq        -3.7880350057    -0.4179378506     0.3634351907
Bq        -3.7875485286    -0.3694679346     0.3511701760
Bq        -3.7870620515    -0.3209980186     0.3389051613
Bq        -3.7865755743    -0.2725281027     0.3266401466
Bq        -3.7860890972    -0.2240581867     0.3143751319
Bq        -3.7856026201    -0.1755882707     0.3021101172
Bq        -3.7851161430    -0.1271183548     0.2898451025
Bq        -3.7846296659    -0.0786484388     0.2775800877
Bq        -3.7841431888    -0.0301785228     0.2653150730
Bq        -3.7836567117     0.0182913932     0.2530500583
Bq        -3.7831702346     0.0667613091     0.2407850436
Bq        -3.7826837574     0.1152312251     0.2285200289
Bq        -3.7821972803     0.1637011411     0.2162550142
Bq        -3.7817108032     0.2121710570     0.2039899995
Bq        -3.7812243261     0.2606409730     0.1917249847
Bq        -3.7807378490     0.3091108890     0.1794599700
Bq        -3.7802513719     0.3575808049     0.1671949553
Bq        -3.7797648948     0.4060507209     0.1549299406
Bq        -3.7792784177     0.4545206369     0.1426649259
Bq        -3.7787919405     0.5029905529     0.1303999112
Bq        -3.7783054634     0.5514604688     0.1181348965
Bq        -3.7778189863     0.5999303848     0.1058698817
Bq        -3.7773325092     0.6484003008     0.0936048670
Bq        -3.7768460321     0.6968702167     0.0813398523
Bq        -3.7763595550     0.7453401327     0.0690748376
Bq        -3.7758730779     0.7938100487     0.0568098229
Bq        -3.7753866008     0.8422799646     0.0445448082
Bq        -3.7749001237     0.8907498806     0.0322797935
Bq        -3.7744136465     0.9392197966     0.0200147788
Bq        -3.7739271694     0.9876897125     0.0077497640
Bq        -3.7734406923     1.0361596285    -0.0045152507
Bq        -3.7729542152     1.0846295445    -0.0167802654
Bq        -3.7724677381     1.1330994605    -0.0290452801
Bq        -3.7719812610     1.1815693764    -0.0413102948
Bq        -3.7714947839     1.2300392924    -0.0535753095
Bq        -3.7710083068     1.2785092084    -0.0658403242
Bq        -3.7705218296     1.3269791243    -0.0781053390
Bq        -3.7700353525     1.3754490403    -0.0903703537
Bq        -3.7695488754     1.4239189563    -0.1026353684
Bq        -3.7690623983     1.4723888722    -0.1149003831
Bq        -3.7685759212     1.5208587882    -0.1271653978
Bq        -3.7680894441     1.5693287042    -0.1394304125
Bq        -3.7676029670     1.6177986202    -0.1516954272
Bq        -3.7671164899     1.6662685361    -0.1639604420
Bq        -3.7666300127     1.7147384521    -0.1762254567
Bq        -3.7661435356     1.7632083681    -0.1884904714
Bq        -3.7656570585     1.8116782840    -0.2007554861
Bq        -3.7651705814     1.8601482000    -0.2130205008
Bq        -3.7646841043     1.9086181160    -0.2252855155
Bq        -3.7641976272     1.9570880319    -0.2375505302
Bq        -3.7637111501     2.0055579479    -0.2498155449
Bq        -3.7632246730     2.0540278639    -0.2620805597
Bq        -3.7627381958     2.1024977798    -0.2743455744
Bq        -3.7622517187     2.1509676958    -0.2866105891
Bq        -3.7617652416     2.1994376118    -0.2988756038
Bq        -3.7612787645     2.2479075278    -0.3111406185
Bq        -3.7607922874     2.2963774437    -0.3234056332
Bq        -3.7603058103     2.3448473597    -0.3356706479
Bq        -3.7598193332     2.3933172757    -0.3479356627
Bq        -3.7593328561     2.4417871916    -0.3602006774
Bq        -3.7588463789     2.4902571076    -0.3724656921
Bq        -3.7583599018     2.5387270236    -0.3847307068
Bq        -3.7578734247     2.5871969395    -0.3969957215
Bq        -3.7573869476     2.6356668555    -0.4092607362
Bq        -3.7569004705     2.6841367715    -0.4215257509
Bq        -3.7564139934     2.7326066875    -0.4337907656
Bq        -3.7559275163     2.7810766034    -0.4460557804
Bq        -3.7554410392     2.8295465194    -0.4583207951
Bq        -3.7549545621     2.8780164354    -0.4705858098
Bq        -3.7544680849     2.9264863513    -0.4828508245
Bq        -3.7539816078     2.9749562673    -0.4951158392
Bq        -3.7534951307     3.0234261833    -0.5073808539
Bq        -3.7530086536     3.0718960992    -0.5196458686
Bq        -3.7525221765     3.1203660152    -0.5319108834
Bq        -3.7520356994     3.1688359312    -0.5441758981
Bq        -3.7515492223     3.2173058471    -0.5564409128
Bq        -3.7510627452     3.2657757631    -0.5687059275
Bq        -3.7505762680     3.3142456791    -0.5809709422
Bq        -3.7500897909     3.3627155951    -0.5932359569
Bq        -3.7496033138     3.4111855110    -0.6055009716
Bq        -3.7491168367     3.4596554270    -0.6177659864
Bq        -3.7486303596     3.5081253430    -0.6300310011
Bq        -3.7481438825     3.5565952589    -0.6422960158
Bq        -3.7476574054     3.6050651749    -0.6545610305
Bq        -3.7471709283     3.6535350909    -0.6668260452
Bq        -3.7466844511     3.7020050068    -0.6790910599
Bq        -3.7461979740     3.7504749228    -0.6913560746
Bq        -3.7457114969     3.7989448388    -0.7036210893
Bq        -3.7452250198     3.8474147548    -0.7158861041
Bq        -3.7447385427     3.8958846707    -0.7281511188
Bq        -3.7442520656     3.9443545867    -0.7404161335
Bq        -3.7437655885     3.9928245027    -0.7526811482
Bq        -3.7432791114     4.0412944186    -0.7649461629

1
2
3
4
5
6
7
8
9
10
11
12
13
14
15
16
17
18
19
20
21
22
23
24
25
26
27
28
29
30
31
32
33
34
35
36
37
38
39
40
41
42
43
44
45
46
47
48
49
50
51
52
53
54
55
56
57
58
59
60
61
62
63
64
65
66
67
68
69
70
71
72
73
74
75
76
77
78
79
80
81
82
83
84
85
86
87
88
89
90
91
92
93
94
95
96
97
98
99
100
101
102
103
104
105
106
107
108
109
110
111
112
113
114
115
116
117
118
119
120
121
122
123
124
125
126
127
128
129
130
131
132
133
134
135
136
137
138
139
140
141
142
143
144
145
146
147
148
149
150
151
152
153
154
155
156
157
158
159
160
161
162
163
164
165
166
167
168
169
170
171
172
173
174
175
176
177
178
179
180
181
182
183
184
185
186
187
188
189
190
191
192
193
194
195
196
197
198
199
200
201
202
203
204
205
206
207
208
209
210
211
212
213
214
215
216
217
218
219
220
221
222
223
224
225
226
227
228
229
230
231
232
233
234
235
236

