%nproc=8
%mem=1000MB
# rb3lyp/6-311+g** NMR geom=connectivity

Title

0 1
C    -4.0500558   -0.5771862    0.8136712
H    -5.0263804   -1.0082727    1.0024760
C    -3.9381552    0.6617804    0.2400876
H    -4.8252424    1.2338890   -0.0111295
C    -2.6768410    1.2433246    0.0057578
C    -1.4974121    0.5051527    0.2848253
C    -1.6508332   -0.7338728    0.9404026
H    -0.7713646   -1.2730967    1.2633753
C    -2.8898548   -1.2624035    1.1994307
H    -2.9683706   -2.2124563    1.7152676
C    -2.5773185    2.5963696   -0.4192930
H    -3.4870728    3.1412239   -0.6474055
C    -1.3741895    3.2147896   -0.4364030
H    -1.2997315    4.2742019   -0.6578144
C    -0.1719488    2.4994090   -0.1734588
C    -0.2043917    1.1018437    0.0192689
C     1.0513491    3.2042560   -0.0676222
H     1.0427344    4.2819499   -0.1896997
C     2.1942091    2.5487446    0.2579577
H     3.1168527    3.0912848    0.4334727
C     2.2216473    1.1336562    0.2934990
C     1.0486931    0.3945528    0.0302412
C     3.4483363    0.4614633    0.5573939
H     4.3095794    1.0606054    0.8334846
C     3.5427346   -0.8855926    0.4749463
H     4.4731467   -1.3939704    0.7038822
C     2.4490052   -1.6474447   -0.0196319
C     1.2150704   -1.0057258   -0.3013573
C     0.2531113   -1.7434440   -1.0216591
H    -0.6541356   -1.2535051   -1.3462847
C     0.4494193   -3.0628597   -1.3413779
H    -0.3083162   -3.5944309   -1.9054060
C     1.6251726   -3.7207967   -0.9552541
H     1.7670048   -4.7687404   -1.1927019
C     2.6109872   -3.0144177   -0.3183050
H     3.5525612   -3.4902813   -0.0646367
Bq         0.1636057364    -1.2090656408    -0.8857158899
Bq         0.1581024998    -1.1608691494    -0.8735992646
Bq         0.1525992631    -1.1126726581    -0.8614826394
Bq         0.1470960264    -1.0644761667    -0.8493660142
Bq         0.1415927897    -1.0162796754    -0.8372493889
Bq         0.1360895530    -0.9680831840    -0.8251327637
Bq         0.1305863163    -0.9198866927    -0.8130161385
Bq         0.1250830796    -0.8716902013    -0.8008995133
Bq         0.1195798430    -0.8234937099    -0.7887828880
Bq         0.1140766063    -0.7752972186    -0.7766662628
Bq         0.1085733696    -0.7271007272    -0.7645496376
Bq         0.1030701329    -0.6789042359    -0.7524330123
Bq         0.0975668962    -0.6307077445    -0.7403163871
Bq         0.0920636595    -0.5825112532    -0.7281997619
Bq         0.0865604228    -0.5343147618    -0.7160831367
Bq         0.0810571862    -0.4861182704    -0.7039665114
Bq         0.0755539495    -0.4379217791    -0.6918498862
Bq         0.0700507128    -0.3897252877    -0.6797332610
Bq         0.0645474761    -0.3415287964    -0.6676166357
Bq         0.0590442394    -0.2933323050    -0.6555000105
Bq         0.0535410027    -0.2451358137    -0.6433833853
Bq         0.0480377660    -0.1969393223    -0.6312667600
Bq         0.0425345294    -0.1487428310    -0.6191501348
Bq         0.0370312927    -0.1005463396    -0.6070335096
Bq         0.0315280560    -0.0523498482    -0.5949168844
Bq         0.0260248193    -0.0041533569    -0.5828002591
Bq         0.0205215826     0.0440431345    -0.5706836339
Bq         0.6163696879    -4.7756060011    -1.7616694630
Bq         0.6108664512    -4.7274095098    -1.7495528378
Bq         0.6053632145    -4.6792130184    -1.7374362125
Bq         0.5998599778    -4.6310165271    -1.7253195873
Bq         0.5943567411    -4.5828200357    -1.7132029621
Bq         0.5888535044    -4.5346235444    -1.7010863368
Bq         0.5833502678    -4.4864270530    -1.6889697116
Bq         0.5778470311    -4.4382305616    -1.6768530864
Bq         0.5723437944    -4.3900340703    -1.6647364612
Bq         0.5668405577    -4.3418375789    -1.6526198359
Bq         0.5613373210    -4.2936410876    -1.6405032107
Bq         0.5558340843    -4.2454445962    -1.6283865855
Bq         0.5503308476    -4.1972481049    -1.6162699602
Bq         0.5448276110    -4.1490516135    -1.6041533350
Bq         0.5393243743    -4.1008551222    -1.5920367098
Bq         0.5338211376    -4.0526586308    -1.5799200846
Bq         0.5283179009    -4.0044621394    -1.5678034593
Bq         0.5228146642    -3.9562656481    -1.5556868341
Bq         0.5173114275    -3.9080691567    -1.5435702089
Bq         0.5118081908    -3.8598726654    -1.5314535836
Bq         0.5063049542    -3.8116761740    -1.5193369584
Bq         0.5008017175    -3.7634796827    -1.5072203332
Bq         0.4952984808    -3.7152831913    -1.4951037080
Bq         0.4897952441    -3.6670866999    -1.4829870827
Bq         0.4842920074    -3.6188902086    -1.4708704575
Bq         0.4787887707    -3.5706937172    -1.4587538323
Bq         0.4732855340    -3.5224972259    -1.4466372070
Bq         0.4677822974    -3.4743007345    -1.4345205818
Bq         0.4622790607    -3.4261042432    -1.4224039566
Bq         0.4567758240    -3.3779077518    -1.4102873313
Bq         0.4512725873    -3.3297112605    -1.3981707061
Bq         0.4457693506    -3.2815147691    -1.3860540809
Bq         0.4402661139    -3.2333182777    -1.3739374557
Bq         0.4347628772    -3.1851217864    -1.3618208304
Bq         0.4292596405    -3.1369252950    -1.3497042052
Bq         0.4237564039    -3.0887288037    -1.3375875800
Bq         0.4182531672    -3.0405323123    -1.3254709547
Bq         0.4127499305    -2.9923358210    -1.3133543295
Bq         0.4072466938    -2.9441393296    -1.3012377043
Bq         0.4017434571    -2.8959428383    -1.2891210791
Bq         0.3962402204    -2.8477463469    -1.2770044538
Bq         0.3907369837    -2.7995498555    -1.2648878286
Bq         0.3852337471    -2.7513533642    -1.2527712034
Bq         0.3797305104    -2.7031568728    -1.2406545781
Bq         0.3742272737    -2.6549603815    -1.2285379529
Bq         0.3687240370    -2.6067638901    -1.2164213277
Bq         0.3632208003    -2.5585673988    -1.2043047025
Bq         0.3577175636    -2.5103709074    -1.1921880772
Bq         0.3522143269    -2.4621744160    -1.1800714520
Bq         0.3467110903    -2.4139779247    -1.1679548268
Bq         0.3412078536    -2.3657814333    -1.1558382015
Bq         0.3357046169    -2.3175849420    -1.1437215763
Bq         0.3302013802    -2.2693884506    -1.1316049511
Bq         0.3246981435    -2.2211919593    -1.1194883259
Bq         0.3191949068    -2.1729954679    -1.1073717006
Bq         0.3136916701    -2.1247989766    -1.0952550754
Bq         0.3081884335    -2.0766024852    -1.0831384502
Bq         0.3026851968    -2.0284059938    -1.0710218249
Bq         0.2971819601    -1.9802095025    -1.0589051997
Bq         0.2916787234    -1.9320130111    -1.0467885745
Bq         0.2861754867    -1.8838165198    -1.0346719493
Bq         0.2806722500    -1.8356200284    -1.0225553240
Bq         0.2751690133    -1.7874235371    -1.0104386988
Bq         0.2696657767    -1.7392270457    -0.9983220736
Bq         0.2641625400    -1.6910305543    -0.9862054483
Bq         0.2586593033    -1.6428340630    -0.9740888231
Bq         0.2531560666    -1.5946375716    -0.9619721979
Bq         0.2476528299    -1.5464410803    -0.9498555726
Bq         0.2421495932    -1.4982445889    -0.9377389474
Bq         0.2366463565    -1.4500480976    -0.9256223222
Bq         0.2311431199    -1.4018516062    -0.9135056970
Bq         0.2256398832    -1.3536551149    -0.9013890717
Bq         0.2201366465    -1.3054586235    -0.8892724465
Bq         0.2146334098    -1.2572621321    -0.8771558213
Bq         0.2091301731    -1.2090656408    -0.8650391960
Bq         0.2036269364    -1.1608691494    -0.8529225708
Bq         0.1981236997    -1.1126726581    -0.8408059456
Bq         0.1926204630    -1.0644761667    -0.8286893204
Bq         0.1871172264    -1.0162796754    -0.8165726951
Bq         0.1816139897    -0.9680831840    -0.8044560699
Bq         0.1761107530    -0.9198866927    -0.7923394447
Bq         0.1706075163    -0.8716902013    -0.7802228194
Bq         0.1651042796    -0.8234937099    -0.7681061942
Bq         0.1596010429    -0.7752972186    -0.7559895690
Bq         0.1540978062    -0.7271007272    -0.7438729438
Bq         0.1485945696    -0.6789042359    -0.7317563185
Bq         0.1430913329    -0.6307077445    -0.7196396933
Bq         0.1375880962    -0.5825112532    -0.7075230681
Bq         0.1320848595    -0.5343147618    -0.6954064428
Bq         0.1265816228    -0.4861182704    -0.6832898176
Bq         0.1210783861    -0.4379217791    -0.6711731924
Bq         0.1155751494    -0.3897252877    -0.6590565672
Bq         0.1100719128    -0.3415287964    -0.6469399419
Bq         0.1045686761    -0.2933323050    -0.6348233167
Bq         0.0990654394    -0.2451358137    -0.6227066915
Bq         0.0935622027    -0.1969393223    -0.6105900662
Bq         0.0880589660    -0.1487428310    -0.5984734410
Bq         0.0825557293    -0.1005463396    -0.5863568158
Bq         0.0770524926    -0.0523498482    -0.5742401905
Bq         0.0715492560    -0.0041533569    -0.5621235653
Bq         0.0660460193     0.0440431345    -0.5500069401
Bq         0.6618941245    -4.7756060011    -1.7409927692
Bq         0.6563908878    -4.7274095098    -1.7288761439
Bq         0.6508876512    -4.6792130184    -1.7167595187
Bq         0.6453844145    -4.6310165271    -1.7046428935
Bq         0.6398811778    -4.5828200357    -1.6925262683
Bq         0.6343779411    -4.5346235444    -1.6804096430
Bq         0.6288747044    -4.4864270530    -1.6682930178
Bq         0.6233714677    -4.4382305616    -1.6561763926
Bq         0.6178682310    -4.3900340703    -1.6440597673
Bq         0.6123649944    -4.3418375789    -1.6319431421
Bq         0.6068617577    -4.2936410876    -1.6198265169
Bq         0.6013585210    -4.2454445962    -1.6077098917
Bq         0.5958552843    -4.1972481049    -1.5955932664
Bq         0.5903520476    -4.1490516135    -1.5834766412
Bq         0.5848488109    -4.1008551222    -1.5713600160
Bq         0.5793455742    -4.0526586308    -1.5592433907
Bq         0.5738423376    -4.0044621394    -1.5471267655
Bq         0.5683391009    -3.9562656481    -1.5350101403
Bq         0.5628358642    -3.9080691567    -1.5228935151
Bq         0.5573326275    -3.8598726654    -1.5107768898
Bq         0.5518293908    -3.8116761740    -1.4986602646
Bq         0.5463261541    -3.7634796827    -1.4865436394
Bq         0.5408229174    -3.7152831913    -1.4744270141
Bq         0.5353196808    -3.6670866999    -1.4623103889
Bq         0.5298164441    -3.6188902086    -1.4501937637
Bq         0.5243132074    -3.5706937172    -1.4380771385
Bq         0.5188099707    -3.5224972259    -1.4259605132
Bq         0.5133067340    -3.4743007345    -1.4138438880
Bq         0.5078034973    -3.4261042432    -1.4017272628
Bq         0.5023002606    -3.3779077518    -1.3896106375
Bq         0.4967970239    -3.3297112605    -1.3774940123
Bq         0.4912937873    -3.2815147691    -1.3653773871
Bq         0.4857905506    -3.2333182777    -1.3532607618
Bq         0.4802873139    -3.1851217864    -1.3411441366
Bq         0.4747840772    -3.1369252950    -1.3290275114
Bq         0.4692808405    -3.0887288037    -1.3169108862
Bq         0.4637776038    -3.0405323123    -1.3047942609
Bq         0.4582743671    -2.9923358210    -1.2926776357
Bq         0.4527711305    -2.9441393296    -1.2805610105
Bq         0.4472678938    -2.8959428383    -1.2684443852
Bq         0.4417646571    -2.8477463469    -1.2563277600
Bq         0.4362614204    -2.7995498555    -1.2442111348
Bq         0.4307581837    -2.7513533642    -1.2320945096
Bq         0.4252549470    -2.7031568728    -1.2199778843
Bq         0.4197517103    -2.6549603815    -1.2078612591
Bq         0.4142484737    -2.6067638901    -1.1957446339
Bq         0.4087452370    -2.5585673988    -1.1836280086
Bq         0.4032420003    -2.5103709074    -1.1715113834
Bq         0.3977387636    -2.4621744160    -1.1593947582
Bq         0.3922355269    -2.4139779247    -1.1472781330
Bq         0.3867322902    -2.3657814333    -1.1351615077
Bq         0.3812290535    -2.3175849420    -1.1230448825
Bq         0.3757258169    -2.2693884506    -1.1109282573
Bq         0.3702225802    -2.2211919593    -1.0988116320
Bq         0.3647193435    -2.1729954679    -1.0866950068
Bq         0.3592161068    -2.1247989766    -1.0745783816
Bq         0.3537128701    -2.0766024852    -1.0624617564
Bq         0.3482096334    -2.0284059938    -1.0503451311
Bq         0.3427063967    -1.9802095025    -1.0382285059
Bq         0.3372031601    -1.9320130111    -1.0261118807
Bq         0.3316999234    -1.8838165198    -1.0139952554
Bq         0.3261966867    -1.8356200284    -1.0018786302
Bq         0.3206934500    -1.7874235371    -0.9897620050
Bq         0.3151902133    -1.7392270457    -0.9776453797
Bq         0.3096869766    -1.6910305543    -0.9655287545
Bq         0.3041837399    -1.6428340630    -0.9534121293
Bq         0.2986805033    -1.5946375716    -0.9412955041
Bq         0.2931772666    -1.5464410803    -0.9291788788
Bq         0.2876740299    -1.4982445889    -0.9170622536
Bq         0.2821707932    -1.4500480976    -0.9049456284
Bq         0.2766675565    -1.4018516062    -0.8928290031
Bq         0.2711643198    -1.3536551149    -0.8807123779

1
2
3
4
5
6
7
8
9
10
11
12
13
14
15
16
17
18
19
20
21
22
23
24
25
26
27
28
29
30
31
32
33
34
35
36
37
38
39
40
41
42
43
44
45
46
47
48
49
50
51
52
53
54
55
56
57
58
59
60
61
62
63
64
65
66
67
68
69
70
71
72
73
74
75
76
77
78
79
80
81
82
83
84
85
86
87
88
89
90
91
92
93
94
95
96
97
98
99
100
101
102
103
104
105
106
107
108
109
110
111
112
113
114
115
116
117
118
119
120
121
122
123
124
125
126
127
128
129
130
131
132
133
134
135
136
137
138
139
140
141
142
143
144
145
146
147
148
149
150
151
152
153
154
155
156
157
158
159
160
161
162
163
164
165
166
167
168
169
170
171
172
173
174
175
176
177
178
179
180
181
182
183
184
185
186
187
188
189
190
191
192
193
194
195
196
197
198
199
200
201
202
203
204
205
206
207
208
209
210
211
212
213
214
215
216
217
218
219
220
221
222
223
224
225
226
227
228
229
230
231
232
233
234
235
236

