%nproc=8
%mem=1000MB
# rb3lyp/6-311+g** NMR geom=connectivity

Title

0 1
C    -4.0500558   -0.5771862    0.8136712
H    -5.0263804   -1.0082727    1.0024760
C    -3.9381552    0.6617804    0.2400876
H    -4.8252424    1.2338890   -0.0111295
C    -2.6768410    1.2433246    0.0057578
C    -1.4974121    0.5051527    0.2848253
C    -1.6508332   -0.7338728    0.9404026
H    -0.7713646   -1.2730967    1.2633753
C    -2.8898548   -1.2624035    1.1994307
H    -2.9683706   -2.2124563    1.7152676
C    -2.5773185    2.5963696   -0.4192930
H    -3.4870728    3.1412239   -0.6474055
C    -1.3741895    3.2147896   -0.4364030
H    -1.2997315    4.2742019   -0.6578144
C    -0.1719488    2.4994090   -0.1734588
C    -0.2043917    1.1018437    0.0192689
C     1.0513491    3.2042560   -0.0676222
H     1.0427344    4.2819499   -0.1896997
C     2.1942091    2.5487446    0.2579577
H     3.1168527    3.0912848    0.4334727
C     2.2216473    1.1336562    0.2934990
C     1.0486931    0.3945528    0.0302412
C     3.4483363    0.4614633    0.5573939
H     4.3095794    1.0606054    0.8334846
C     3.5427346   -0.8855926    0.4749463
H     4.4731467   -1.3939704    0.7038822
C     2.4490052   -1.6474447   -0.0196319
C     1.2150704   -1.0057258   -0.3013573
C     0.2531113   -1.7434440   -1.0216591
H    -0.6541356   -1.2535051   -1.3462847
C     0.4494193   -3.0628597   -1.3413779
H    -0.3083162   -3.5944309   -1.9054060
C     1.6251726   -3.7207967   -0.9552541
H     1.7670048   -4.7687404   -1.1927019
C     2.6109872   -3.0144177   -0.3183050
H     3.5525612   -3.4902813   -0.0646367
Bq        -5.2297373787     2.1340326241    -0.4725123247
Bq        -5.2296519125     2.1790583204    -0.4942535152
Bq        -5.2295664464     2.2240840168    -0.5159947057
Bq        -5.1881134464    -2.2784856168     1.6583208979
Bq        -5.1880279803    -2.2334599204     1.6365797073
Bq        -5.1879425142    -2.1884342241     1.6148385168
Bq        -5.1878570480    -2.1434085278     1.5930973263
Bq        -5.1877715819    -2.0983828314     1.5713561358
Bq        -5.1876861158    -2.0533571351     1.5496149453
Bq        -5.1876006496    -2.0083314388     1.5278737548
Bq        -5.1875151835    -1.9633057424     1.5061325643
Bq        -5.1874297173    -1.9182800461     1.4843913737
Bq        -5.1873442512    -1.8732543497     1.4626501832
Bq        -5.1872587851    -1.8282286534     1.4409089927
Bq        -5.1871733189    -1.7832029571     1.4191678022
Bq        -5.1870878528    -1.7381772607     1.3974266117
Bq        -5.1870023867    -1.6931515644     1.3756854212
Bq        -5.1869169205    -1.6481258681     1.3539442306
Bq        -5.1868314544    -1.6031001717     1.3322030401
Bq        -5.1867459882    -1.5580744754     1.3104618496
Bq        -5.1866605221    -1.5130487791     1.2887206591
Bq        -5.1865750560    -1.4680230827     1.2669794686
Bq        -5.1864895898    -1.4229973864     1.2452382781
Bq        -5.1864041237    -1.3779716901     1.2234970875
Bq        -5.1863186576    -1.3329459937     1.2017558970
Bq        -5.1862331914    -1.2879202974     1.1800147065
Bq        -5.1861477253    -1.2428946011     1.1582735160
Bq        -5.1860622591    -1.1978689047     1.1365323255
Bq        -5.1859767930    -1.1528432084     1.1147911350
Bq        -5.1858913269    -1.1078175120     1.0930499444
Bq        -5.1858058607    -1.0627918157     1.0713087539
Bq        -5.1857203946    -1.0177661194     1.0495675634
Bq        -5.1856349285    -0.9727404230     1.0278263729
Bq        -5.1855494623    -0.9277147267     1.0060851824
Bq        -5.1854639962    -0.8826890304     0.9843439919
Bq        -5.1853785300    -0.8376633340     0.9626028013
Bq        -5.1852930639    -0.7926376377     0.9408616108
Bq        -5.1852075978    -0.7476119414     0.9191204203
Bq        -5.1851221316    -0.7025862450     0.8973792298
Bq        -5.1850366655    -0.6575605487     0.8756380393
Bq        -5.1849511994    -0.6125348524     0.8538968488
Bq        -5.1848657332    -0.5675091560     0.8321556582
Bq        -5.1847802671    -0.5224834597     0.8104144677
Bq        -5.1846948010    -0.4774577634     0.7886732772
Bq        -5.1846093348    -0.4324320670     0.7669320867
Bq        -5.1845238687    -0.3874063707     0.7451908962
Bq        -5.1844384025    -0.3423806743     0.7234497057
Bq        -5.1843529364    -0.2973549780     0.7017085152
Bq        -5.1842674703    -0.2523292817     0.6799673246
Bq        -5.1841820041    -0.2073035853     0.6582261341
Bq        -5.1840965380    -0.1622778890     0.6364849436
Bq        -5.1840110719    -0.1172521927     0.6147437531
Bq        -5.1839256057    -0.0722264963     0.5930025626
Bq        -5.1838401396    -0.0272008000     0.5712613721
Bq        -5.1837546734     0.0178248963     0.5495201815
Bq        -5.1836692073     0.0628505927     0.5277789910
Bq        -5.1835837412     0.1078762890     0.5060378005
Bq        -5.1834982750     0.1529019853     0.4842966100
Bq        -5.1834128089     0.1979276817     0.4625554195
Bq        -5.1833273428     0.2429533780     0.4408142290
Bq        -5.1832418766     0.2879790743     0.4190730384
Bq        -5.1831564105     0.3330047707     0.3973318479
Bq        -5.1830709443     0.3780304670     0.3755906574
Bq        -5.1829854782     0.4230561634     0.3538494669
Bq        -5.1829000121     0.4680818597     0.3321082764
Bq        -5.1828145459     0.5131075560     0.3103670859
Bq        -5.1827290798     0.5581332524     0.2886258953
Bq        -5.1826436137     0.6031589487     0.2668847048
Bq        -5.1825581475     0.6481846450     0.2451435143
Bq        -5.1824726814     0.6932103414     0.2234023238
Bq        -5.1823872152     0.7382360377     0.2016611333
Bq        -5.1823017491     0.7832617340     0.1799199428
Bq        -5.1822162830     0.8282874304     0.1581787522
Bq        -5.1821308168     0.8733131267     0.1364375617
Bq        -5.1820453507     0.9183388230     0.1146963712
Bq        -5.1819598846     0.9633645194     0.0929551807
Bq        -5.1818744184     1.0083902157     0.0712139902
Bq        -5.1817889523     1.0534159120     0.0494727997
Bq        -5.1817034861     1.0984416084     0.0277316091
Bq        -5.1816180200     1.1434673047     0.0059904186
Bq        -5.1815325539     1.1884930011    -0.0157507719
Bq        -5.1814470877     1.2335186974    -0.0374919624
Bq        -5.1813616216     1.2785443937    -0.0592331529
Bq        -5.1812761555     1.3235700901    -0.0809743434
Bq        -5.1811906893     1.3685957864    -0.1027155339
Bq        -5.1811052232     1.4136214827    -0.1244567245
Bq        -5.1810197570     1.4586471791    -0.1461979150
Bq        -5.1809342909     1.5036728754    -0.1679391055
Bq        -5.1808488248     1.5486985717    -0.1896802960
Bq        -5.1807633586     1.5937242681    -0.2114214865
Bq        -5.1806778925     1.6387499644    -0.2331626770
Bq        -5.1805924264     1.6837756607    -0.2549038676
Bq        -5.1805069602     1.7288013571    -0.2766450581
Bq        -5.1804214941     1.7738270534    -0.2983862486
Bq        -5.1803360279     1.8188527497    -0.3201274391
Bq        -5.1802505618     1.8638784461    -0.3418686296
Bq        -5.1801650957     1.9089041424    -0.3636098201
Bq        -5.1800796295     1.9539298388    -0.3853510107
Bq        -5.1799941634     1.9989555351    -0.4070922012
Bq        -5.1799086973     2.0439812314    -0.4288333917
Bq        -5.1798232311     2.0890069278    -0.4505745822
Bq        -5.1797377650     2.1340326241    -0.4723157727
Bq        -5.1796522988     2.1790583204    -0.4940569632
Bq        -5.1795668327     2.2240840168    -0.5157981538
Bq        -5.1381138328    -2.2784856168     1.6585174498
Bq        -5.1380283666    -2.2334599204     1.6367762593
Bq        -5.1379429005    -2.1884342241     1.6150350688
Bq        -5.1378574344    -2.1434085278     1.5932938783
Bq        -5.1377719682    -2.0983828314     1.5715526878
Bq        -5.1376865021    -2.0533571351     1.5498114973
Bq        -5.1376010359    -2.0083314388     1.5280703067
Bq        -5.1375155698    -1.9633057424     1.5063291162
Bq        -5.1374301037    -1.9182800461     1.4845879257
Bq        -5.1373446375    -1.8732543497     1.4628467352
Bq        -5.1372591714    -1.8282286534     1.4411055447
Bq        -5.1371737053    -1.7832029571     1.4193643542
Bq        -5.1370882391    -1.7381772607     1.3976231636
Bq        -5.1370027730    -1.6931515644     1.3758819731
Bq        -5.1369173068    -1.6481258681     1.3541407826
Bq        -5.1368318407    -1.6031001717     1.3323995921
Bq        -5.1367463746    -1.5580744754     1.3106584016
Bq        -5.1366609084    -1.5130487791     1.2889172111
Bq        -5.1365754423    -1.4680230827     1.2671760205
Bq        -5.1364899762    -1.4229973864     1.2454348300
Bq        -5.1364045100    -1.3779716901     1.2236936395
Bq        -5.1363190439    -1.3329459937     1.2019524490
Bq        -5.1362335778    -1.2879202974     1.1802112585
Bq        -5.1361481116    -1.2428946011     1.1584700680
Bq        -5.1360626455    -1.1978689047     1.1367288774
Bq        -5.1359771793    -1.1528432084     1.1149876869
Bq        -5.1358917132    -1.1078175120     1.0932464964
Bq        -5.1358062471    -1.0627918157     1.0715053059
Bq        -5.1357207809    -1.0177661194     1.0497641154
Bq        -5.1356353148    -0.9727404230     1.0280229249
Bq        -5.1355498487    -0.9277147267     1.0062817343
Bq        -5.1354643825    -0.8826890304     0.9845405438
Bq        -5.1353789164    -0.8376633340     0.9627993533
Bq        -5.1352934502    -0.7926376377     0.9410581628
Bq        -5.1352079841    -0.7476119414     0.9193169723
Bq        -5.1351225180    -0.7025862450     0.8975757818
Bq        -5.1350370518    -0.6575605487     0.8758345913
Bq        -5.1349515857    -0.6125348524     0.8540934007
Bq        -5.1348661196    -0.5675091560     0.8323522102
Bq        -5.1347806534    -0.5224834597     0.8106110197
Bq        -5.1346951873    -0.4774577634     0.7888698292
Bq        -5.1346097211    -0.4324320670     0.7671286387
Bq        -5.1345242550    -0.3874063707     0.7453874482
Bq        -5.1344387889    -0.3423806743     0.7236462576
Bq        -5.1343533227    -0.2973549780     0.7019050671
Bq        -5.1342678566    -0.2523292817     0.6801638766
Bq        -5.1341823905    -0.2073035853     0.6584226861
Bq        -5.1340969243    -0.1622778890     0.6366814956
Bq        -5.1340114582    -0.1172521927     0.6149403051
Bq        -5.1339259920    -0.0722264963     0.5931991145
Bq        -5.1338405259    -0.0272008000     0.5714579240
Bq        -5.1337550598     0.0178248963     0.5497167335
Bq        -5.1336695936     0.0628505927     0.5279755430
Bq        -5.1335841275     0.1078762890     0.5062343525
Bq        -5.1334986614     0.1529019853     0.4844931620
Bq        -5.1334131952     0.1979276817     0.4627519714
Bq        -5.1333277291     0.2429533780     0.4410107809
Bq        -5.1332422629     0.2879790743     0.4192695904
Bq        -5.1331567968     0.3330047707     0.3975283999
Bq        -5.1330713307     0.3780304670     0.3757872094
Bq        -5.1329858645     0.4230561634     0.3540460189
Bq        -5.1329003984     0.4680818597     0.3323048283
Bq        -5.1328149323     0.5131075560     0.3105636378
Bq        -5.1327294661     0.5581332524     0.2888224473
Bq        -5.1326440000     0.6031589487     0.2670812568
Bq        -5.1325585338     0.6481846450     0.2453400663
Bq        -5.1324730677     0.6932103414     0.2235988758
Bq        -5.1323876016     0.7382360377     0.2018576852
Bq        -5.1323021354     0.7832617340     0.1801164947
Bq        -5.1322166693     0.8282874304     0.1583753042
Bq        -5.1321312032     0.8733131267     0.1366341137
Bq        -5.1320457370     0.9183388230     0.1148929232
Bq        -5.1319602709     0.9633645194     0.0931517327
Bq        -5.1318748047     1.0083902157     0.0714105422
Bq        -5.1317893386     1.0534159120     0.0496693516
Bq        -5.1317038725     1.0984416084     0.0279281611
Bq        -5.1316184063     1.1434673047     0.0061869706
Bq        -5.1315329402     1.1884930011    -0.0155542199
Bq        -5.1314474741     1.2335186974    -0.0372954104
Bq        -5.1313620079     1.2785443937    -0.0590366009
Bq        -5.1312765418     1.3235700901    -0.0807777915
Bq        -5.1311910756     1.3685957864    -0.1025189820
Bq        -5.1311056095     1.4136214827    -0.1242601725
Bq        -5.1310201434     1.4586471791    -0.1460013630
Bq        -5.1309346772     1.5036728754    -0.1677425535
Bq        -5.1308492111     1.5486985717    -0.1894837440
Bq        -5.1307637450     1.5937242681    -0.2112249346
Bq        -5.1306782788     1.6387499644    -0.2329661251
Bq        -5.1305928127     1.6837756607    -0.2547073156
Bq        -5.1305073465     1.7288013571    -0.2764485061
Bq        -5.1304218804     1.7738270534    -0.2981896966
Bq        -5.1303364143     1.8188527497    -0.3199308871
Bq        -5.1302509481     1.8638784461    -0.3416720777
Bq        -5.1301654820     1.9089041424    -0.3634132682
Bq        -5.1300800159     1.9539298388    -0.3851544587
Bq        -5.1299945497     1.9989555351    -0.4068956492

1
2
3
4
5
6
7
8
9
10
11
12
13
14
15
16
17
18
19
20
21
22
23
24
25
26
27
28
29
30
31
32
33
34
35
36
37
38
39
40
41
42
43
44
45
46
47
48
49
50
51
52
53
54
55
56
57
58
59
60
61
62
63
64
65
66
67
68
69
70
71
72
73
74
75
76
77
78
79
80
81
82
83
84
85
86
87
88
89
90
91
92
93
94
95
96
97
98
99
100
101
102
103
104
105
106
107
108
109
110
111
112
113
114
115
116
117
118
119
120
121
122
123
124
125
126
127
128
129
130
131
132
133
134
135
136
137
138
139
140
141
142
143
144
145
146
147
148
149
150
151
152
153
154
155
156
157
158
159
160
161
162
163
164
165
166
167
168
169
170
171
172
173
174
175
176
177
178
179
180
181
182
183
184
185
186
187
188
189
190
191
192
193
194
195
196
197
198
199
200
201
202
203
204
205
206
207
208
209
210
211
212
213
214
215
216
217
218
219
220
221
222
223
224
225
226
227
228
229
230
231
232
233
234
235
236

