%nproc=8
%mem=1000MB
# rb3lyp/6-311+g** NMR geom=connectivity

Title

0 1
C    -4.0500558   -0.5771862    0.8136712
H    -5.0263804   -1.0082727    1.0024760
C    -3.9381552    0.6617804    0.2400876
H    -4.8252424    1.2338890   -0.0111295
C    -2.6768410    1.2433246    0.0057578
C    -1.4974121    0.5051527    0.2848253
C    -1.6508332   -0.7338728    0.9404026
H    -0.7713646   -1.2730967    1.2633753
C    -2.8898548   -1.2624035    1.1994307
H    -2.9683706   -2.2124563    1.7152676
C    -2.5773185    2.5963696   -0.4192930
H    -3.4870728    3.1412239   -0.6474055
C    -1.3741895    3.2147896   -0.4364030
H    -1.2997315    4.2742019   -0.6578144
C    -0.1719488    2.4994090   -0.1734588
C    -0.2043917    1.1018437    0.0192689
C     1.0513491    3.2042560   -0.0676222
H     1.0427344    4.2819499   -0.1896997
C     2.1942091    2.5487446    0.2579577
H     3.1168527    3.0912848    0.4334727
C     2.2216473    1.1336562    0.2934990
C     1.0486931    0.3945528    0.0302412
C     3.4483363    0.4614633    0.5573939
H     4.3095794    1.0606054    0.8334846
C     3.5427346   -0.8855926    0.4749463
H     4.4731467   -1.3939704    0.7038822
C     2.4490052   -1.6474447   -0.0196319
C     1.2150704   -1.0057258   -0.3013573
C     0.2531113   -1.7434440   -1.0216591
H    -0.6541356   -1.2535051   -1.3462847
C     0.4494193   -3.0628597   -1.3413779
H    -0.3083162   -3.5944309   -1.9054060
C     1.6251726   -3.7207967   -0.9552541
H     1.7670048   -4.7687404   -1.1927019
C     2.6109872   -3.0144177   -0.3183050
H     3.5525612   -3.4902813   -0.0646367
Bq         0.1670130461     1.8204547748    -0.0967032777
Bq         0.1651675208     1.8699461218    -0.0898330079
Bq         0.1633219956     1.9194374688    -0.0829627382
Bq         0.1614764703     1.9689288158    -0.0760924684
Bq         0.1596309450     2.0184201628    -0.0692221986
Bq         0.1577854198     2.0679115098    -0.0623519288
Bq         0.1559398945     2.1174028569    -0.0554816590
Bq         0.1540943692     2.1668942039    -0.0486113893
Bq         0.1522488439     2.2163855509    -0.0417411195
Bq         0.3850894957    -2.7327491509    -0.7157967065
Bq         0.3832439705    -2.6832578039    -0.7089264368
Bq         0.3813984452    -2.6337664569    -0.7020561670
Bq         0.3795529199    -2.5842751098    -0.6951858972
Bq         0.3777073947    -2.5347837628    -0.6883156274
Bq         0.3758618694    -2.4852924158    -0.6814453576
Bq         0.3740163441    -2.4358010688    -0.6745750879
Bq         0.3721708189    -2.3863097218    -0.6677048181
Bq         0.3703252936    -2.3368183748    -0.6608345483
Bq         0.3684797683    -2.2873270277    -0.6539642785
Bq         0.3666342431    -2.2378356807    -0.6470940087
Bq         0.3647887178    -2.1883443337    -0.6402237390
Bq         0.3629431925    -2.1388529867    -0.6333534692
Bq         0.3610976673    -2.0893616397    -0.6264831994
Bq         0.3592521420    -2.0398702926    -0.6196129296
Bq         0.3574066167    -1.9903789456    -0.6127426598
Bq         0.3555610915    -1.9408875986    -0.6058723901
Bq         0.3537155662    -1.8913962516    -0.5990021203
Bq         0.3518700409    -1.8419049046    -0.5921318505
Bq         0.3500245157    -1.7924135576    -0.5852615807
Bq         0.3481789904    -1.7429222105    -0.5783913110
Bq         0.3463334651    -1.6934308635    -0.5715210412
Bq         0.3444879399    -1.6439395165    -0.5646507714
Bq         0.3426424146    -1.5944481695    -0.5577805016
Bq         0.3407968893    -1.5449568225    -0.5509102318
Bq         0.3389513640    -1.4954654754    -0.5440399621
Bq         0.3371058388    -1.4459741284    -0.5371696923
Bq         0.3352603135    -1.3964827814    -0.5302994225
Bq         0.3334147882    -1.3469914344    -0.5234291527
Bq         0.3315692630    -1.2975000874    -0.5165588829
Bq         0.3297237377    -1.2480087404    -0.5096886132
Bq         0.3278782124    -1.1985173933    -0.5028183434
Bq         0.3260326872    -1.1490260463    -0.4959480736
Bq         0.3241871619    -1.0995346993    -0.4890778038
Bq         0.3223416366    -1.0500433523    -0.4822075340
Bq         0.3204961114    -1.0005520053    -0.4753372643
Bq         0.3186505861    -0.9510606583    -0.4684669945
Bq         0.3168050608    -0.9015693112    -0.4615967247
Bq         0.3149595356    -0.8520779642    -0.4547264549
Bq         0.3131140103    -0.8025866172    -0.4478561851
Bq         0.3112684850    -0.7530952702    -0.4409859154
Bq         0.3094229598    -0.7036039232    -0.4341156456
Bq         0.3075774345    -0.6541125761    -0.4272453758
Bq         0.3057319092    -0.6046212291    -0.4203751060
Bq         0.3038863840    -0.5551298821    -0.4135048362
Bq         0.3020408587    -0.5056385351    -0.4066345665
Bq         0.3001953334    -0.4561471881    -0.3997642967
Bq         0.2983498082    -0.4066558411    -0.3928940269
Bq         0.2965042829    -0.3571644940    -0.3860237571
Bq         0.2946587576    -0.3076731470    -0.3791534873
Bq         0.2928132324    -0.2581818000    -0.3722832176
Bq         0.2909677071    -0.2086904530    -0.3654129478
Bq         0.2891221818    -0.1591991060    -0.3585426780
Bq         0.2872766566    -0.1097077589    -0.3516724082
Bq         0.2854311313    -0.0602164119    -0.3448021385
Bq         0.2835856060    -0.0107250649    -0.3379318687
Bq         0.2817400808     0.0387662821    -0.3310615989
Bq         0.2798945555     0.0882576291    -0.3241913291
Bq         0.2780490302     0.1377489761    -0.3173210593
Bq         0.2762035049     0.1872403232    -0.3104507896
Bq         0.2743579797     0.2367316702    -0.3035805198
Bq         0.2725124544     0.2862230172    -0.2967102500
Bq         0.2706669291     0.3357143642    -0.2898399802
Bq         0.2688214039     0.3852057112    -0.2829697104
Bq         0.2669758786     0.4346970583    -0.2760994407
Bq         0.2651303533     0.4841884053    -0.2692291709
Bq         0.2632848281     0.5336797523    -0.2623589011
Bq         0.2614393028     0.5831710993    -0.2554886313
Bq         0.2595937775     0.6326624463    -0.2486183615
Bq         0.2577482523     0.6821537933    -0.2417480918
Bq         0.2559027270     0.7316451404    -0.2348778220
Bq         0.2540572017     0.7811364874    -0.2280075522
Bq         0.2522116765     0.8306278344    -0.2211372824
Bq         0.2503661512     0.8801191814    -0.2142670126
Bq         0.2485206259     0.9296105284    -0.2073967429
Bq         0.2466751007     0.9791018754    -0.2005264731
Bq         0.2448295754     1.0285932225    -0.1936562033
Bq         0.2429840501     1.0780845695    -0.1867859335
Bq         0.2411385249     1.1275759165    -0.1799156637
Bq         0.2392929996     1.1770672635    -0.1730453940
Bq         0.2374474743     1.2265586105    -0.1661751242
Bq         0.2356019491     1.2760499576    -0.1593048544
Bq         0.2337564238     1.3255413046    -0.1524345846
Bq         0.2319108985     1.3750326516    -0.1455643148
Bq         0.2300653733     1.4245239986    -0.1386940451
Bq         0.2282198480     1.4740153456    -0.1318237753
Bq         0.2263743227     1.5235066926    -0.1249535055
Bq         0.2245287975     1.5729980397    -0.1180832357
Bq         0.2226832722     1.6224893867    -0.1112129659
Bq         0.2208377469     1.6719807337    -0.1043426962
Bq         0.2189922216     1.7214720807    -0.0974724264
Bq         0.2171466964     1.7709634277    -0.0906021566
Bq         0.2153011711     1.8204547748    -0.0837318868
Bq         0.2134556458     1.8699461218    -0.0768616171
Bq         0.2116101206     1.9194374688    -0.0699913473
Bq         0.2097645953     1.9689288158    -0.0631210775
Bq         0.2079190700     2.0184201628    -0.0562508077
Bq         0.2060735448     2.0679115098    -0.0493805379
Bq         0.2042280195     2.1174028569    -0.0425102682
Bq         0.2023824942     2.1668942039    -0.0356399984
Bq         0.2005369690     2.2163855509    -0.0287697286
Bq         0.4333776208    -2.7327491509    -0.7028253156
Bq         0.4315320955    -2.6832578039    -0.6959550459
Bq         0.4296865702    -2.6337664569    -0.6890847761
Bq         0.4278410450    -2.5842751098    -0.6822145063
Bq         0.4259955197    -2.5347837628    -0.6753442365
Bq         0.4241499944    -2.4852924158    -0.6684739667
Bq         0.4223044692    -2.4358010688    -0.6616036970
Bq         0.4204589439    -2.3863097218    -0.6547334272
Bq         0.4186134186    -2.3368183748    -0.6478631574
Bq         0.4167678934    -2.2873270277    -0.6409928876
Bq         0.4149223681    -2.2378356807    -0.6341226179
Bq         0.4130768428    -2.1883443337    -0.6272523481
Bq         0.4112313176    -2.1388529867    -0.6203820783
Bq         0.4093857923    -2.0893616397    -0.6135118085
Bq         0.4075402670    -2.0398702926    -0.6066415387
Bq         0.4056947417    -1.9903789456    -0.5997712690
Bq         0.4038492165    -1.9408875986    -0.5929009992
Bq         0.4020036912    -1.8913962516    -0.5860307294
Bq         0.4001581659    -1.8419049046    -0.5791604596
Bq         0.3983126407    -1.7924135576    -0.5722901898
Bq         0.3964671154    -1.7429222105    -0.5654199201
Bq         0.3946215901    -1.6934308635    -0.5585496503
Bq         0.3927760649    -1.6439395165    -0.5516793805
Bq         0.3909305396    -1.5944481695    -0.5448091107
Bq         0.3890850143    -1.5449568225    -0.5379388409
Bq         0.3872394891    -1.4954654754    -0.5310685712
Bq         0.3853939638    -1.4459741284    -0.5241983014
Bq         0.3835484385    -1.3964827814    -0.5173280316
Bq         0.3817029133    -1.3469914344    -0.5104577618
Bq         0.3798573880    -1.2975000874    -0.5035874920
Bq         0.3780118627    -1.2480087404    -0.4967172223
Bq         0.3761663375    -1.1985173933    -0.4898469525
Bq         0.3743208122    -1.1490260463    -0.4829766827
Bq         0.3724752869    -1.0995346993    -0.4761064129
Bq         0.3706297617    -1.0500433523    -0.4692361431
Bq         0.3687842364    -1.0005520053    -0.4623658734
Bq         0.3669387111    -0.9510606583    -0.4554956036
Bq         0.3650931859    -0.9015693112    -0.4486253338
Bq         0.3632476606    -0.8520779642    -0.4417550640
Bq         0.3614021353    -0.8025866172    -0.4348847942
Bq         0.3595566101    -0.7530952702    -0.4280145245
Bq         0.3577110848    -0.7036039232    -0.4211442547
Bq         0.3558655595    -0.6541125761    -0.4142739849
Bq         0.3540200343    -0.6046212291    -0.4074037151
Bq         0.3521745090    -0.5551298821    -0.4005334454
Bq         0.3503289837    -0.5056385351    -0.3936631756
Bq         0.3484834585    -0.4561471881    -0.3867929058
Bq         0.3466379332    -0.4066558411    -0.3799226360
Bq         0.3447924079    -0.3571644940    -0.3730523662
Bq         0.3429468826    -0.3076731470    -0.3661820965
Bq         0.3411013574    -0.2581818000    -0.3593118267
Bq         0.3392558321    -0.2086904530    -0.3524415569
Bq         0.3374103068    -0.1591991060    -0.3455712871
Bq         0.3355647816    -0.1097077589    -0.3387010173
Bq         0.3337192563    -0.0602164119    -0.3318307476
Bq         0.3318737310    -0.0107250649    -0.3249604778
Bq         0.3300282058     0.0387662821    -0.3180902080
Bq         0.3281826805     0.0882576291    -0.3112199382
Bq         0.3263371552     0.1377489761    -0.3043496684
Bq         0.3244916300     0.1872403232    -0.2974793987
Bq         0.3226461047     0.2367316702    -0.2906091289
Bq         0.3208005794     0.2862230172    -0.2837388591
Bq         0.3189550542     0.3357143642    -0.2768685893
Bq         0.3171095289     0.3852057112    -0.2699983195
Bq         0.3152640036     0.4346970583    -0.2631280498
Bq         0.3134184784     0.4841884053    -0.2562577800
Bq         0.3115729531     0.5336797523    -0.2493875102
Bq         0.3097274278     0.5831710993    -0.2425172404
Bq         0.3078819026     0.6326624463    -0.2356469706
Bq         0.3060363773     0.6821537933    -0.2287767009
Bq         0.3041908520     0.7316451404    -0.2219064311
Bq         0.3023453268     0.7811364874    -0.2150361613
Bq         0.3004998015     0.8306278344    -0.2081658915
Bq         0.2986542762     0.8801191814    -0.2012956217
Bq         0.2968087510     0.9296105284    -0.1944253520
Bq         0.2949632257     0.9791018754    -0.1875550822
Bq         0.2931177004     1.0285932225    -0.1806848124
Bq         0.2912721752     1.0780845695    -0.1738145426
Bq         0.2894266499     1.1275759165    -0.1669442728
Bq         0.2875811246     1.1770672635    -0.1600740031
Bq         0.2857355993     1.2265586105    -0.1532037333
Bq         0.2838900741     1.2760499576    -0.1463334635
Bq         0.2820445488     1.3255413046    -0.1394631937
Bq         0.2801990235     1.3750326516    -0.1325929240
Bq         0.2783534983     1.4245239986    -0.1257226542
Bq         0.2765079730     1.4740153456    -0.1188523844
Bq         0.2746624477     1.5235066926    -0.1119821146
Bq         0.2728169225     1.5729980397    -0.1051118448
Bq         0.2709713972     1.6224893867    -0.0982415751
Bq         0.2691258719     1.6719807337    -0.0913713053

1
2
3
4
5
6
7
8
9
10
11
12
13
14
15
16
17
18
19
20
21
22
23
24
25
26
27
28
29
30
31
32
33
34
35
36
37
38
39
40
41
42
43
44
45
46
47
48
49
50
51
52
53
54
55
56
57
58
59
60
61
62
63
64
65
66
67
68
69
70
71
72
73
74
75
76
77
78
79
80
81
82
83
84
85
86
87
88
89
90
91
92
93
94
95
96
97
98
99
100
101
102
103
104
105
106
107
108
109
110
111
112
113
114
115
116
117
118
119
120
121
122
123
124
125
126
127
128
129
130
131
132
133
134
135
136
137
138
139
140
141
142
143
144
145
146
147
148
149
150
151
152
153
154
155
156
157
158
159
160
161
162
163
164
165
166
167
168
169
170
171
172
173
174
175
176
177
178
179
180
181
182
183
184
185
186
187
188
189
190
191
192
193
194
195
196
197
198
199
200
201
202
203
204
205
206
207
208
209
210
211
212
213
214
215
216
217
218
219
220
221
222
223
224
225
226
227
228
229
230
231
232
233
234
235
236

