%nproc=8
%mem=1000MB
# rb3lyp/6-311+g** NMR geom=connectivity

Title

0 1
C    -4.0500558   -0.5771862    0.8136712
H    -5.0263804   -1.0082727    1.0024760
C    -3.9381552    0.6617804    0.2400876
H    -4.8252424    1.2338890   -0.0111295
C    -2.6768410    1.2433246    0.0057578
C    -1.4974121    0.5051527    0.2848253
C    -1.6508332   -0.7338728    0.9404026
H    -0.7713646   -1.2730967    1.2633753
C    -2.8898548   -1.2624035    1.1994307
H    -2.9683706   -2.2124563    1.7152676
C    -2.5773185    2.5963696   -0.4192930
H    -3.4870728    3.1412239   -0.6474055
C    -1.3741895    3.2147896   -0.4364030
H    -1.2997315    4.2742019   -0.6578144
C    -0.1719488    2.4994090   -0.1734588
C    -0.2043917    1.1018437    0.0192689
C     1.0513491    3.2042560   -0.0676222
H     1.0427344    4.2819499   -0.1896997
C     2.1942091    2.5487446    0.2579577
H     3.1168527    3.0912848    0.4334727
C     2.2216473    1.1336562    0.2934990
C     1.0486931    0.3945528    0.0302412
C     3.4483363    0.4614633    0.5573939
H     4.3095794    1.0606054    0.8334846
C     3.5427346   -0.8855926    0.4749463
H     4.4731467   -1.3939704    0.7038822
C     2.4490052   -1.6474447   -0.0196319
C     1.2150704   -1.0057258   -0.3013573
C     0.2531113   -1.7434440   -1.0216591
H    -0.6541356   -1.2535051   -1.3462847
C     0.4494193   -3.0628597   -1.3413779
H    -0.3083162   -3.5944309   -1.9054060
C     1.6251726   -3.7207967   -0.9552541
H     1.7670048   -4.7687404   -1.1927019
C     2.6109872   -3.0144177   -0.3183050
H     3.5525612   -3.4902813   -0.0646367
Bq        -0.1337888557     2.1174028569    -0.1333100044
Bq        -0.1356343809     2.1668942039    -0.1264397346
Bq        -0.1374799062     2.2163855509    -0.1195694649
Bq         0.0953607456    -2.7327491509    -0.7936250519
Bq         0.0935152203    -2.6832578039    -0.7867547821
Bq         0.0916696951    -2.6337664569    -0.7798845123
Bq         0.0898241698    -2.5842751098    -0.7730142426
Bq         0.0879786445    -2.5347837628    -0.7661439728
Bq         0.0861331193    -2.4852924158    -0.7592737030
Bq         0.0842875940    -2.4358010688    -0.7524034332
Bq         0.0824420687    -2.3863097218    -0.7455331635
Bq         0.0805965435    -2.3368183748    -0.7386628937
Bq         0.0787510182    -2.2873270277    -0.7317926239
Bq         0.0769054929    -2.2378356807    -0.7249223541
Bq         0.0750599677    -2.1883443337    -0.7180520843
Bq         0.0732144424    -2.1388529867    -0.7111818146
Bq         0.0713689171    -2.0893616397    -0.7043115448
Bq         0.0695233919    -2.0398702926    -0.6974412750
Bq         0.0676778666    -1.9903789456    -0.6905710052
Bq         0.0658323413    -1.9408875986    -0.6837007354
Bq         0.0639868161    -1.8913962516    -0.6768304657
Bq         0.0621412908    -1.8419049046    -0.6699601959
Bq         0.0602957655    -1.7924135576    -0.6630899261
Bq         0.0584502402    -1.7429222105    -0.6562196563
Bq         0.0566047150    -1.6934308635    -0.6493493865
Bq         0.0547591897    -1.6439395165    -0.6424791168
Bq         0.0529136644    -1.5944481695    -0.6356088470
Bq         0.0510681392    -1.5449568225    -0.6287385772
Bq         0.0492226139    -1.4954654754    -0.6218683074
Bq         0.0473770886    -1.4459741284    -0.6149980376
Bq         0.0455315634    -1.3964827814    -0.6081277679
Bq         0.0436860381    -1.3469914344    -0.6012574981
Bq         0.0418405128    -1.2975000874    -0.5943872283
Bq         0.0399949876    -1.2480087404    -0.5875169585
Bq         0.0381494623    -1.1985173933    -0.5806466887
Bq         0.0363039370    -1.1490260463    -0.5737764190
Bq         0.0344584118    -1.0995346993    -0.5669061492
Bq         0.0326128865    -1.0500433523    -0.5600358794
Bq         0.0307673612    -1.0005520053    -0.5531656096
Bq         0.0289218360    -0.9510606583    -0.5462953398
Bq         0.0270763107    -0.9015693112    -0.5394250701
Bq         0.0252307854    -0.8520779642    -0.5325548003
Bq         0.0233852602    -0.8025866172    -0.5256845305
Bq         0.0215397349    -0.7530952702    -0.5188142607
Bq         0.0196942096    -0.7036039232    -0.5119439910
Bq         0.0178486844    -0.6541125761    -0.5050737212
Bq         0.0160031591    -0.6046212291    -0.4982034514
Bq         0.0141576338    -0.5551298821    -0.4913331816
Bq         0.0123121086    -0.5056385351    -0.4844629118
Bq         0.0104665833    -0.4561471881    -0.4775926421
Bq         0.0086210580    -0.4066558411    -0.4707223723
Bq         0.0067755328    -0.3571644940    -0.4638521025
Bq         0.0049300075    -0.3076731470    -0.4569818327
Bq         0.0030844822    -0.2581818000    -0.4501115629
Bq         0.0012389569    -0.2086904530    -0.4432412932
Bq        -0.0006065683    -0.1591991060    -0.4363710234
Bq        -0.0024520936    -0.1097077589    -0.4295007536
Bq        -0.0042976189    -0.0602164119    -0.4226304838
Bq        -0.0061431441    -0.0107250649    -0.4157602140
Bq        -0.0079886694     0.0387662821    -0.4088899443
Bq        -0.0098341947     0.0882576291    -0.4020196745
Bq        -0.0116797199     0.1377489761    -0.3951494047
Bq        -0.0135252452     0.1872403232    -0.3882791349
Bq        -0.0153707705     0.2367316702    -0.3814088651
Bq        -0.0172162957     0.2862230172    -0.3745385954
Bq        -0.0190618210     0.3357143642    -0.3676683256
Bq        -0.0209073463     0.3852057112    -0.3607980558
Bq        -0.0227528715     0.4346970583    -0.3539277860
Bq        -0.0245983968     0.4841884053    -0.3470575162
Bq        -0.0264439221     0.5336797523    -0.3401872465
Bq        -0.0282894473     0.5831710993    -0.3333169767
Bq        -0.0301349726     0.6326624463    -0.3264467069
Bq        -0.0319804979     0.6821537933    -0.3195764371
Bq        -0.0338260231     0.7316451404    -0.3127061673
Bq        -0.0356715484     0.7811364874    -0.3058358976
Bq        -0.0375170737     0.8306278344    -0.2989656278
Bq        -0.0393625989     0.8801191814    -0.2920953580
Bq        -0.0412081242     0.9296105284    -0.2852250882
Bq        -0.0430536495     0.9791018754    -0.2783548184
Bq        -0.0448991747     1.0285932225    -0.2714845487
Bq        -0.0467447000     1.0780845695    -0.2646142789
Bq        -0.0485902253     1.1275759165    -0.2577440091
Bq        -0.0504357505     1.1770672635    -0.2508737393
Bq        -0.0522812758     1.2265586105    -0.2440034696
Bq        -0.0541268011     1.2760499576    -0.2371331998
Bq        -0.0559723263     1.3255413046    -0.2302629300
Bq        -0.0578178516     1.3750326516    -0.2233926602
Bq        -0.0596633769     1.4245239986    -0.2165223904
Bq        -0.0615089022     1.4740153456    -0.2096521207
Bq        -0.0633544274     1.5235066926    -0.2027818509
Bq        -0.0651999527     1.5729980397    -0.1959115811
Bq        -0.0670454780     1.6224893867    -0.1890413113
Bq        -0.0688910032     1.6719807337    -0.1821710415
Bq        -0.0707365285     1.7214720807    -0.1753007718
Bq        -0.0725820538     1.7709634277    -0.1684305020
Bq        -0.0744275790     1.8204547748    -0.1615602322
Bq        -0.0762731043     1.8699461218    -0.1546899624
Bq        -0.0781186296     1.9194374688    -0.1478196926
Bq        -0.0799641548     1.9689288158    -0.1409494229
Bq        -0.0818096801     2.0184201628    -0.1340791531
Bq        -0.0836552054     2.0679115098    -0.1272088833
Bq        -0.0855007306     2.1174028569    -0.1203386135
Bq        -0.0873462559     2.1668942039    -0.1134683437
Bq        -0.0891917812     2.2163855509    -0.1065980740
Bq         0.1436488706    -2.7327491509    -0.7806536610
Bq         0.1418033454    -2.6832578039    -0.7737833912
Bq         0.1399578201    -2.6337664569    -0.7669131215
Bq         0.1381122948    -2.5842751098    -0.7600428517
Bq         0.1362667696    -2.5347837628    -0.7531725819
Bq         0.1344212443    -2.4852924158    -0.7463023121
Bq         0.1325757190    -2.4358010688    -0.7394320423
Bq         0.1307301938    -2.3863097218    -0.7325617726
Bq         0.1288846685    -2.3368183748    -0.7256915028
Bq         0.1270391432    -2.2873270277    -0.7188212330
Bq         0.1251936179    -2.2378356807    -0.7119509632
Bq         0.1233480927    -2.1883443337    -0.7050806934
Bq         0.1215025674    -2.1388529867    -0.6982104237
Bq         0.1196570421    -2.0893616397    -0.6913401539
Bq         0.1178115169    -2.0398702926    -0.6844698841
Bq         0.1159659916    -1.9903789456    -0.6775996143
Bq         0.1141204663    -1.9408875986    -0.6707293445
Bq         0.1122749411    -1.8913962516    -0.6638590748
Bq         0.1104294158    -1.8419049046    -0.6569888050
Bq         0.1085838905    -1.7924135576    -0.6501185352
Bq         0.1067383653    -1.7429222105    -0.6432482654
Bq         0.1048928400    -1.6934308635    -0.6363779956
Bq         0.1030473147    -1.6439395165    -0.6295077259
Bq         0.1012017895    -1.5944481695    -0.6226374561
Bq         0.0993562642    -1.5449568225    -0.6157671863
Bq         0.0975107389    -1.4954654754    -0.6088969165
Bq         0.0956652137    -1.4459741284    -0.6020266467
Bq         0.0938196884    -1.3964827814    -0.5951563770
Bq         0.0919741631    -1.3469914344    -0.5882861072
Bq         0.0901286379    -1.2975000874    -0.5814158374
Bq         0.0882831126    -1.2480087404    -0.5745455676
Bq         0.0864375873    -1.1985173933    -0.5676752979
Bq         0.0845920621    -1.1490260463    -0.5608050281
Bq         0.0827465368    -1.0995346993    -0.5539347583
Bq         0.0809010115    -1.0500433523    -0.5470644885
Bq         0.0790554863    -1.0005520053    -0.5401942187
Bq         0.0772099610    -0.9510606583    -0.5333239490
Bq         0.0753644357    -0.9015693112    -0.5264536792
Bq         0.0735189105    -0.8520779642    -0.5195834094
Bq         0.0716733852    -0.8025866172    -0.5127131396
Bq         0.0698278599    -0.7530952702    -0.5058428698
Bq         0.0679823346    -0.7036039232    -0.4989726001
Bq         0.0661368094    -0.6541125761    -0.4921023303
Bq         0.0642912841    -0.6046212291    -0.4852320605
Bq         0.0624457588    -0.5551298821    -0.4783617907
Bq         0.0606002336    -0.5056385351    -0.4714915209
Bq         0.0587547083    -0.4561471881    -0.4646212512
Bq         0.0569091830    -0.4066558411    -0.4577509814
Bq         0.0550636578    -0.3571644940    -0.4508807116
Bq         0.0532181325    -0.3076731470    -0.4440104418
Bq         0.0513726072    -0.2581818000    -0.4371401720
Bq         0.0495270820    -0.2086904530    -0.4302699023
Bq         0.0476815567    -0.1591991060    -0.4233996325
Bq         0.0458360314    -0.1097077589    -0.4165293627
Bq         0.0439905062    -0.0602164119    -0.4096590929
Bq         0.0421449809    -0.0107250649    -0.4027888231
Bq         0.0402994556     0.0387662821    -0.3959185534
Bq         0.0384539304     0.0882576291    -0.3890482836
Bq         0.0366084051     0.1377489761    -0.3821780138
Bq         0.0347628798     0.1872403232    -0.3753077440
Bq         0.0329173546     0.2367316702    -0.3684374742
Bq         0.0310718293     0.2862230172    -0.3615672045
Bq         0.0292263040     0.3357143642    -0.3546969347
Bq         0.0273807788     0.3852057112    -0.3478266649
Bq         0.0255352535     0.4346970583    -0.3409563951
Bq         0.0236897282     0.4841884053    -0.3340861253
Bq         0.0218442030     0.5336797523    -0.3272158556
Bq         0.0199986777     0.5831710993    -0.3203455858
Bq         0.0181531524     0.6326624463    -0.3134753160
Bq         0.0163076272     0.6821537933    -0.3066050462
Bq         0.0144621019     0.7316451404    -0.2997347765
Bq         0.0126165766     0.7811364874    -0.2928645067
Bq         0.0107710514     0.8306278344    -0.2859942369
Bq         0.0089255261     0.8801191814    -0.2791239671
Bq         0.0070800008     0.9296105284    -0.2722536973
Bq         0.0052344755     0.9791018754    -0.2653834276
Bq         0.0033889503     1.0285932225    -0.2585131578
Bq         0.0015434250     1.0780845695    -0.2516428880
Bq        -0.0003021003     1.1275759165    -0.2447726182
Bq        -0.0021476255     1.1770672635    -0.2379023484
Bq        -0.0039931508     1.2265586105    -0.2310320787
Bq        -0.0058386761     1.2760499576    -0.2241618089
Bq        -0.0076842013     1.3255413046    -0.2172915391
Bq        -0.0095297266     1.3750326516    -0.2104212693
Bq        -0.0113752519     1.4245239986    -0.2035509995
Bq        -0.0132207771     1.4740153456    -0.1966807298
Bq        -0.0150663024     1.5235066926    -0.1898104600
Bq        -0.0169118277     1.5729980397    -0.1829401902
Bq        -0.0187573529     1.6224893867    -0.1760699204
Bq        -0.0206028782     1.6719807337    -0.1691996506
Bq        -0.0224484035     1.7214720807    -0.1623293809
Bq        -0.0242939287     1.7709634277    -0.1554591111
Bq        -0.0261394540     1.8204547748    -0.1485888413
Bq        -0.0279849793     1.8699461218    -0.1417185715
Bq        -0.0298305045     1.9194374688    -0.1348483017
Bq        -0.0316760298     1.9689288158    -0.1279780320

1
2
3
4
5
6
7
8
9
10
11
12
13
14
15
16
17
18
19
20
21
22
23
24
25
26
27
28
29
30
31
32
33
34
35
36
37
38
39
40
41
42
43
44
45
46
47
48
49
50
51
52
53
54
55
56
57
58
59
60
61
62
63
64
65
66
67
68
69
70
71
72
73
74
75
76
77
78
79
80
81
82
83
84
85
86
87
88
89
90
91
92
93
94
95
96
97
98
99
100
101
102
103
104
105
106
107
108
109
110
111
112
113
114
115
116
117
118
119
120
121
122
123
124
125
126
127
128
129
130
131
132
133
134
135
136
137
138
139
140
141
142
143
144
145
146
147
148
149
150
151
152
153
154
155
156
157
158
159
160
161
162
163
164
165
166
167
168
169
170
171
172
173
174
175
176
177
178
179
180
181
182
183
184
185
186
187
188
189
190
191
192
193
194
195
196
197
198
199
200
201
202
203
204
205
206
207
208
209
210
211
212
213
214
215
216
217
218
219
220
221
222
223
224
225
226
227
228
229
230
231
232
233
234
235
236

