%nproc=8
%mem=1000MB
# rb3lyp/6-311+g** NMR geom=connectivity

Title

0 1
C    -4.0500558   -0.5771862    0.8136712
H    -5.0263804   -1.0082727    1.0024760
C    -3.9381552    0.6617804    0.2400876
H    -4.8252424    1.2338890   -0.0111295
C    -2.6768410    1.2433246    0.0057578
C    -1.4974121    0.5051527    0.2848253
C    -1.6508332   -0.7338728    0.9404026
H    -0.7713646   -1.2730967    1.2633753
C    -2.8898548   -1.2624035    1.1994307
H    -2.9683706   -2.2124563    1.7152676
C    -2.5773185    2.5963696   -0.4192930
H    -3.4870728    3.1412239   -0.6474055
C    -1.3741895    3.2147896   -0.4364030
H    -1.2997315    4.2742019   -0.6578144
C    -0.1719488    2.4994090   -0.1734588
C    -0.2043917    1.1018437    0.0192689
C     1.0513491    3.2042560   -0.0676222
H     1.0427344    4.2819499   -0.1896997
C     2.1942091    2.5487446    0.2579577
H     3.1168527    3.0912848    0.4334727
C     2.2216473    1.1336562    0.2934990
C     1.0486931    0.3945528    0.0302412
C     3.4483363    0.4614633    0.5573939
H     4.3095794    1.0606054    0.8334846
C     3.5427346   -0.8855926    0.4749463
H     4.4731467   -1.3939704    0.7038822
C     2.4490052   -1.6474447   -0.0196319
C     1.2150704   -1.0057258   -0.3013573
C     0.2531113   -1.7434440   -1.0216591
H    -0.6541356   -1.2535051   -1.3462847
C     0.4494193   -3.0628597   -1.3413779
H    -0.3083162   -3.5944309   -1.9054060
C     1.6251726   -3.7207967   -0.9552541
H     1.7670048   -4.7687404   -1.1927019
C     2.6109872   -3.0144177   -0.3183050
H     3.5525612   -3.4902813   -0.0646367
Bq         1.8985466301    -2.8477463469    -0.5946735580
Bq         1.8930433934    -2.7995498555    -0.5825569327
Bq         1.8875401567    -2.7513533642    -0.5704403075
Bq         1.8820369200    -2.7031568728    -0.5583236823
Bq         1.8765336834    -2.6549603815    -0.5462070570
Bq         1.8710304467    -2.6067638901    -0.5340904318
Bq         1.8655272100    -2.5585673988    -0.5219738066
Bq         1.8600239733    -2.5103709074    -0.5098571814
Bq         1.8545207366    -2.4621744160    -0.4977405561
Bq         1.8490174999    -2.4139779247    -0.4856239309
Bq         1.8435142632    -2.3657814333    -0.4735073057
Bq         1.8380110266    -2.3175849420    -0.4613906804
Bq         1.8325077899    -2.2693884506    -0.4492740552
Bq         1.8270045532    -2.2211919593    -0.4371574300
Bq         1.8215013165    -2.1729954679    -0.4250408048
Bq         1.8159980798    -2.1247989766    -0.4129241795
Bq         1.8104948431    -2.0766024852    -0.4008075543
Bq         1.8049916064    -2.0284059938    -0.3886909291
Bq         1.7994883698    -1.9802095025    -0.3765743038
Bq         1.7939851331    -1.9320130111    -0.3644576786
Bq         1.7884818964    -1.8838165198    -0.3523410534
Bq         1.7829786597    -1.8356200284    -0.3402244282
Bq         1.7774754230    -1.7874235371    -0.3281078029
Bq         1.7719721863    -1.7392270457    -0.3159911777
Bq         1.7664689496    -1.6910305543    -0.3038745525
Bq         1.7609657130    -1.6428340630    -0.2917579272
Bq         1.7554624763    -1.5946375716    -0.2796413020
Bq         1.7499592396    -1.5464410803    -0.2675246768
Bq         1.7444560029    -1.4982445889    -0.2554080516
Bq         1.7389527662    -1.4500480976    -0.2432914263
Bq         1.7334495295    -1.4018516062    -0.2311748011
Bq         1.7279462928    -1.3536551149    -0.2190581759
Bq         1.7224430562    -1.3054586235    -0.2069415506
Bq         1.7169398195    -1.2572621321    -0.1948249254
Bq         1.7114365828    -1.2090656408    -0.1827083002
Bq         1.7059333461    -1.1608691494    -0.1705916749
Bq         1.7004301094    -1.1126726581    -0.1584750497
Bq         1.6949268727    -1.0644761667    -0.1463584245
Bq         1.6894236360    -1.0162796754    -0.1342417993
Bq         1.6839203993    -0.9680831840    -0.1221251740
Bq         1.6784171627    -0.9198866927    -0.1100085488
Bq         1.6729139260    -0.8716902013    -0.0978919236
Bq         1.6674106893    -0.8234937099    -0.0857752983
Bq         1.6619074526    -0.7752972186    -0.0736586731
Bq         1.6564042159    -0.7271007272    -0.0615420479
Bq         1.6509009792    -0.6789042359    -0.0494254227
Bq         1.6453977425    -0.6307077445    -0.0373087974
Bq         1.6398945059    -0.5825112532    -0.0251921722
Bq         1.6343912692    -0.5343147618    -0.0130755470
Bq         1.6288880325    -0.4861182704    -0.0009589217
Bq         1.6233847958    -0.4379217791     0.0111577035
Bq         1.6178815591    -0.3897252877     0.0232743287
Bq         1.6123783224    -0.3415287964     0.0353909539
Bq         1.6068750857    -0.2933323050     0.0475075792
Bq         1.6013718491    -0.2451358137     0.0596242044
Bq         1.5958686124    -0.1969393223     0.0717408296
Bq         1.5903653757    -0.1487428310     0.0838574549
Bq         1.5848621390    -0.1005463396     0.0959740801
Bq         1.5793589023    -0.0523498482     0.1080907053
Bq         1.5738556656    -0.0041533569     0.1202073305
Bq         1.5683524289     0.0440431345     0.1323239558
Bq         2.1642005342    -4.7756060011    -1.0586618733
Bq         2.1586972975    -4.7274095098    -1.0465452481
Bq         2.1531940608    -4.6792130184    -1.0344286229
Bq         2.1476908241    -4.6310165271    -1.0223119976
Bq         2.1421875875    -4.5828200357    -1.0101953724
Bq         2.1366843508    -4.5346235444    -0.9980787472
Bq         2.1311811141    -4.4864270530    -0.9859621219
Bq         2.1256778774    -4.4382305616    -0.9738454967
Bq         2.1201746407    -4.3900340703    -0.9617288715
Bq         2.1146714040    -4.3418375789    -0.9496122462
Bq         2.1091681673    -4.2936410876    -0.9374956210
Bq         2.1036649307    -4.2454445962    -0.9253789958
Bq         2.0981616940    -4.1972481049    -0.9132623706
Bq         2.0926584573    -4.1490516135    -0.9011457453
Bq         2.0871552206    -4.1008551222    -0.8890291201
Bq         2.0816519839    -4.0526586308    -0.8769124949
Bq         2.0761487472    -4.0044621394    -0.8647958696
Bq         2.0706455105    -3.9562656481    -0.8526792444
Bq         2.0651422739    -3.9080691567    -0.8405626192
Bq         2.0596390372    -3.8598726654    -0.8284459940
Bq         2.0541358005    -3.8116761740    -0.8163293687
Bq         2.0486325638    -3.7634796827    -0.8042127435
Bq         2.0431293271    -3.7152831913    -0.7920961183
Bq         2.0376260904    -3.6670866999    -0.7799794930
Bq         2.0321228537    -3.6188902086    -0.7678628678
Bq         2.0266196171    -3.5706937172    -0.7557462426
Bq         2.0211163804    -3.5224972259    -0.7436296174
Bq         2.0156131437    -3.4743007345    -0.7315129921
Bq         2.0101099070    -3.4261042432    -0.7193963669
Bq         2.0046066703    -3.3779077518    -0.7072797417
Bq         1.9991034336    -3.3297112605    -0.6951631164
Bq         1.9936001969    -3.2815147691    -0.6830464912
Bq         1.9880969602    -3.2333182777    -0.6709298660
Bq         1.9825937236    -3.1851217864    -0.6588132408
Bq         1.9770904869    -3.1369252950    -0.6466966155
Bq         1.9715872502    -3.0887288037    -0.6345799903
Bq         1.9660840135    -3.0405323123    -0.6224633651
Bq         1.9605807768    -2.9923358210    -0.6103467398
Bq         1.9550775401    -2.9441393296    -0.5982301146
Bq         1.9495743034    -2.8959428383    -0.5861134894
Bq         1.9440710668    -2.8477463469    -0.5739968641
Bq         1.9385678301    -2.7995498555    -0.5618802389
Bq         1.9330645934    -2.7513533642    -0.5497636137
Bq         1.9275613567    -2.7031568728    -0.5376469885
Bq         1.9220581200    -2.6549603815    -0.5255303632
Bq         1.9165548833    -2.6067638901    -0.5134137380
Bq         1.9110516466    -2.5585673988    -0.5012971128
Bq         1.9055484100    -2.5103709074    -0.4891804875
Bq         1.9000451733    -2.4621744160    -0.4770638623
Bq         1.8945419366    -2.4139779247    -0.4649472371
Bq         1.8890386999    -2.3657814333    -0.4528306119
Bq         1.8835354632    -2.3175849420    -0.4407139866
Bq         1.8780322265    -2.2693884506    -0.4285973614
Bq         1.8725289898    -2.2211919593    -0.4164807362
Bq         1.8670257532    -2.1729954679    -0.4043641109
Bq         1.8615225165    -2.1247989766    -0.3922474857
Bq         1.8560192798    -2.0766024852    -0.3801308605
Bq         1.8505160431    -2.0284059938    -0.3680142353
Bq         1.8450128064    -1.9802095025    -0.3558976100
Bq         1.8395095697    -1.9320130111    -0.3437809848
Bq         1.8340063330    -1.8838165198    -0.3316643596
Bq         1.8285030964    -1.8356200284    -0.3195477343
Bq         1.8229998597    -1.7874235371    -0.3074311091
Bq         1.8174966230    -1.7392270457    -0.2953144839
Bq         1.8119933863    -1.6910305543    -0.2831978587
Bq         1.8064901496    -1.6428340630    -0.2710812334
Bq         1.8009869129    -1.5946375716    -0.2589646082
Bq         1.7954836762    -1.5464410803    -0.2468479830
Bq         1.7899804396    -1.4982445889    -0.2347313577
Bq         1.7844772029    -1.4500480976    -0.2226147325
Bq         1.7789739662    -1.4018516062    -0.2104981073
Bq         1.7734707295    -1.3536551149    -0.1983814820
Bq         1.7679674928    -1.3054586235    -0.1862648568
Bq         1.7624642561    -1.2572621321    -0.1741482316
Bq         1.7569610194    -1.2090656408    -0.1620316064
Bq         1.7514577827    -1.1608691494    -0.1499149811
Bq         1.7459545461    -1.1126726581    -0.1377983559
Bq         1.7404513094    -1.0644761667    -0.1256817307
Bq         1.7349480727    -1.0162796754    -0.1135651054
Bq         1.7294448360    -0.9680831840    -0.1014484802
Bq         1.7239415993    -0.9198866927    -0.0893318550
Bq         1.7184383626    -0.8716902013    -0.0772152298
Bq         1.7129351259    -0.8234937099    -0.0650986045
Bq         1.7074318893    -0.7752972186    -0.0529819793
Bq         1.7019286526    -0.7271007272    -0.0408653541
Bq         1.6964254159    -0.6789042359    -0.0287487288
Bq         1.6909221792    -0.6307077445    -0.0166321036
Bq         1.6854189425    -0.5825112532    -0.0045154784
Bq         1.6799157058    -0.5343147618     0.0076011468
Bq         1.6744124691    -0.4861182704     0.0197177721
Bq         1.6689092325    -0.4379217791     0.0318343973
Bq         1.6634059958    -0.3897252877     0.0439510225
Bq         1.6579027591    -0.3415287964     0.0560676478
Bq         1.6523995224    -0.2933323050     0.0681842730
Bq         1.6468962857    -0.2451358137     0.0803008982
Bq         1.6413930490    -0.1969393223     0.0924175234
Bq         1.6358898123    -0.1487428310     0.1045341487
Bq         1.6303865757    -0.1005463396     0.1166507739
Bq         1.6248833390    -0.0523498482     0.1287673991
Bq         1.6193801023    -0.0041533569     0.1408840244
Bq         1.6138768656     0.0440431345     0.1530006496
Bq         2.2097249709    -4.7756060011    -1.0379851795
Bq         2.2042217342    -4.7274095098    -1.0258685543
Bq         2.1987184975    -4.6792130184    -1.0137519290
Bq         2.1932152608    -4.6310165271    -1.0016353038
Bq         2.1877120241    -4.5828200357    -0.9895186786
Bq         2.1822087874    -4.5346235444    -0.9774020533
Bq         2.1767055507    -4.4864270530    -0.9652854281
Bq         2.1712023141    -4.4382305616    -0.9531688029
Bq         2.1656990774    -4.3900340703    -0.9410521777
Bq         2.1601958407    -4.3418375789    -0.9289355524
Bq         2.1546926040    -4.2936410876    -0.9168189272
Bq         2.1491893673    -4.2454445962    -0.9047023020
Bq         2.1436861306    -4.1972481049    -0.8925856767
Bq         2.1381828939    -4.1490516135    -0.8804690515
Bq         2.1326796573    -4.1008551222    -0.8683524263
Bq         2.1271764206    -4.0526586308    -0.8562358011
Bq         2.1216731839    -4.0044621394    -0.8441191758
Bq         2.1161699472    -3.9562656481    -0.8320025506
Bq         2.1106667105    -3.9080691567    -0.8198859254
Bq         2.1051634738    -3.8598726654    -0.8077693001
Bq         2.0996602371    -3.8116761740    -0.7956526749
Bq         2.0941570005    -3.7634796827    -0.7835360497
Bq         2.0886537638    -3.7152831913    -0.7714194245
Bq         2.0831505271    -3.6670866999    -0.7593027992
Bq         2.0776472904    -3.6188902086    -0.7471861740
Bq         2.0721440537    -3.5706937172    -0.7350695488
Bq         2.0666408170    -3.5224972259    -0.7229529235
Bq         2.0611375803    -3.4743007345    -0.7108362983
Bq         2.0556343437    -3.4261042432    -0.6987196731
Bq         2.0501311070    -3.3779077518    -0.6866030479
Bq         2.0446278703    -3.3297112605    -0.6744864226
Bq         2.0391246336    -3.2815147691    -0.6623697974
Bq         2.0336213969    -3.2333182777    -0.6502531722
Bq         2.0281181602    -3.1851217864    -0.6381365469
Bq         2.0226149235    -3.1369252950    -0.6260199217
Bq         2.0171116868    -3.0887288037    -0.6139032965
Bq         2.0116084502    -3.0405323123    -0.6017866713
Bq         2.0061052135    -2.9923358210    -0.5896700460

1
2
3
4
5
6
7
8
9
10
11
12
13
14
15
16
17
18
19
20
21
22
23
24
25
26
27
28
29
30
31
32
33
34
35
36
37
38
39
40
41
42
43
44
45
46
47
48
49
50
51
52
53
54
55
56
57
58
59
60
61
62
63
64
65
66
67
68
69
70
71
72
73
74
75
76
77
78
79
80
81
82
83
84
85
86
87
88
89
90
91
92
93
94
95
96
97
98
99
100
101
102
103
104
105
106
107
108
109
110
111
112
113
114
115
116
117
118
119
120
121
122
123
124
125
126
127
128
129
130
131
132
133
134
135
136
137
138
139
140
141
142
143
144
145
146
147
148
149
150
151
152
153
154
155
156
157
158
159
160
161
162
163
164
165
166
167
168
169
170
171
172
173
174
175
176
177
178
179
180
181
182
183
184
185
186
187
188
189
190
191
192
193
194
195
196
197
198
199
200
201
202
203
204
205
206
207
208
209
210
211
212
213
214
215
216
217
218
219
220
221
222
223
224
225
226
227
228
229
230
231
232
233
234
235
236

