%nproc=8
%mem=1000MB
# rb3lyp/6-311+g** NMR geom=connectivity

Title

0 1
C    -4.0500558   -0.5771862    0.8136712
H    -5.0263804   -1.0082727    1.0024760
C    -3.9381552    0.6617804    0.2400876
H    -4.8252424    1.2338890   -0.0111295
C    -2.6768410    1.2433246    0.0057578
C    -1.4974121    0.5051527    0.2848253
C    -1.6508332   -0.7338728    0.9404026
H    -0.7713646   -1.2730967    1.2633753
C    -2.8898548   -1.2624035    1.1994307
H    -2.9683706   -2.2124563    1.7152676
C    -2.5773185    2.5963696   -0.4192930
H    -3.4870728    3.1412239   -0.6474055
C    -1.3741895    3.2147896   -0.4364030
H    -1.2997315    4.2742019   -0.6578144
C    -0.1719488    2.4994090   -0.1734588
C    -0.2043917    1.1018437    0.0192689
C     1.0513491    3.2042560   -0.0676222
H     1.0427344    4.2819499   -0.1896997
C     2.1942091    2.5487446    0.2579577
H     3.1168527    3.0912848    0.4334727
C     2.2216473    1.1336562    0.2934990
C     1.0486931    0.3945528    0.0302412
C     3.4483363    0.4614633    0.5573939
H     4.3095794    1.0606054    0.8334846
C     3.5427346   -0.8855926    0.4749463
H     4.4731467   -1.3939704    0.7038822
C     2.4490052   -1.6474447   -0.0196319
C     1.2150704   -1.0057258   -0.3013573
C     0.2531113   -1.7434440   -1.0216591
H    -0.6541356   -1.2535051   -1.3462847
C     0.4494193   -3.0628597   -1.3413779
H    -0.3083162   -3.5944309   -1.9054060
C     1.6251726   -3.7207967   -0.9552541
H     1.7670048   -4.7687404   -1.1927019
C     2.6109872   -3.0144177   -0.3183050
H     3.5525612   -3.4902813   -0.0646367
Bq        -0.1425603036    -0.9198866927    -0.9370763014
Bq        -0.1480635403    -0.8716902013    -0.9249596761
Bq        -0.1535667770    -0.8234937099    -0.9128430509
Bq        -0.1590700137    -0.7752972186    -0.9007264257
Bq        -0.1645732504    -0.7271007272    -0.8886098005
Bq        -0.1700764870    -0.6789042359    -0.8764931752
Bq        -0.1755797237    -0.6307077445    -0.8643765500
Bq        -0.1810829604    -0.5825112532    -0.8522599248
Bq        -0.1865861971    -0.5343147618    -0.8401432995
Bq        -0.1920894338    -0.4861182704    -0.8280266743
Bq        -0.1975926705    -0.4379217791    -0.8159100491
Bq        -0.2030959072    -0.3897252877    -0.8037934239
Bq        -0.2085991438    -0.3415287964    -0.7916767986
Bq        -0.2141023805    -0.2933323050    -0.7795601734
Bq        -0.2196056172    -0.2451358137    -0.7674435482
Bq        -0.2251088539    -0.1969393223    -0.7553269229
Bq        -0.2306120906    -0.1487428310    -0.7432102977
Bq        -0.2361153273    -0.1005463396    -0.7310936725
Bq        -0.2416185640    -0.0523498482    -0.7189770472
Bq        -0.2471218006    -0.0041533569    -0.7068604220
Bq        -0.2526250373     0.0440431345    -0.6947437968
Bq         0.3432230679    -4.7756060011    -1.8857296259
Bq         0.3377198312    -4.7274095098    -1.8736130006
Bq         0.3322165946    -4.6792130184    -1.8614963754
Bq         0.3267133579    -4.6310165271    -1.8493797502
Bq         0.3212101212    -4.5828200357    -1.8372631250
Bq         0.3157068845    -4.5346235444    -1.8251464997
Bq         0.3102036478    -4.4864270530    -1.8130298745
Bq         0.3047004111    -4.4382305616    -1.8009132493
Bq         0.2991971744    -4.3900340703    -1.7887966240
Bq         0.2936939378    -4.3418375789    -1.7766799988
Bq         0.2881907011    -4.2936410876    -1.7645633736
Bq         0.2826874644    -4.2454445962    -1.7524467484
Bq         0.2771842277    -4.1972481049    -1.7403301231
Bq         0.2716809910    -4.1490516135    -1.7282134979
Bq         0.2661777543    -4.1008551222    -1.7160968727
Bq         0.2606745176    -4.0526586308    -1.7039802474
Bq         0.2551712810    -4.0044621394    -1.6918636222
Bq         0.2496680443    -3.9562656481    -1.6797469970
Bq         0.2441648076    -3.9080691567    -1.6676303718
Bq         0.2386615709    -3.8598726654    -1.6555137465
Bq         0.2331583342    -3.8116761740    -1.6433971213
Bq         0.2276550975    -3.7634796827    -1.6312804961
Bq         0.2221518608    -3.7152831913    -1.6191638708
Bq         0.2166486242    -3.6670866999    -1.6070472456
Bq         0.2111453875    -3.6188902086    -1.5949306204
Bq         0.2056421508    -3.5706937172    -1.5828139952
Bq         0.2001389141    -3.5224972259    -1.5706973699
Bq         0.1946356774    -3.4743007345    -1.5585807447
Bq         0.1891324407    -3.4261042432    -1.5464641195
Bq         0.1836292040    -3.3779077518    -1.5343474942
Bq         0.1781259674    -3.3297112605    -1.5222308690
Bq         0.1726227307    -3.2815147691    -1.5101142438
Bq         0.1671194940    -3.2333182777    -1.4979976185
Bq         0.1616162573    -3.1851217864    -1.4858809933
Bq         0.1561130206    -3.1369252950    -1.4737643681
Bq         0.1506097839    -3.0887288037    -1.4616477429
Bq         0.1451065472    -3.0405323123    -1.4495311176
Bq         0.1396033105    -2.9923358210    -1.4374144924
Bq         0.1341000739    -2.9441393296    -1.4252978672
Bq         0.1285968372    -2.8959428383    -1.4131812419
Bq         0.1230936005    -2.8477463469    -1.4010646167
Bq         0.1175903638    -2.7995498555    -1.3889479915
Bq         0.1120871271    -2.7513533642    -1.3768313663
Bq         0.1065838904    -2.7031568728    -1.3647147410
Bq         0.1010806537    -2.6549603815    -1.3525981158
Bq         0.0955774171    -2.6067638901    -1.3404814906
Bq         0.0900741804    -2.5585673988    -1.3283648653
Bq         0.0845709437    -2.5103709074    -1.3162482401
Bq         0.0790677070    -2.4621744160    -1.3041316149
Bq         0.0735644703    -2.4139779247    -1.2920149897
Bq         0.0680612336    -2.3657814333    -1.2798983644
Bq         0.0625579969    -2.3175849420    -1.2677817392
Bq         0.0570547603    -2.2693884506    -1.2556651140
Bq         0.0515515236    -2.2211919593    -1.2435484887
Bq         0.0460482869    -2.1729954679    -1.2314318635
Bq         0.0405450502    -2.1247989766    -1.2193152383
Bq         0.0350418135    -2.0766024852    -1.2071986131
Bq         0.0295385768    -2.0284059938    -1.1950819878
Bq         0.0240353401    -1.9802095025    -1.1829653626
Bq         0.0185321035    -1.9320130111    -1.1708487374
Bq         0.0130288668    -1.8838165198    -1.1587321121
Bq         0.0075256301    -1.8356200284    -1.1466154869
Bq         0.0020223934    -1.7874235371    -1.1344988617
Bq        -0.0034808433    -1.7392270457    -1.1223822364
Bq        -0.0089840800    -1.6910305543    -1.1102656112
Bq        -0.0144873167    -1.6428340630    -1.0981489860
Bq        -0.0199905533    -1.5946375716    -1.0860323608
Bq        -0.0254937900    -1.5464410803    -1.0739157355
Bq        -0.0309970267    -1.4982445889    -1.0617991103
Bq        -0.0365002634    -1.4500480976    -1.0496824851
Bq        -0.0420035001    -1.4018516062    -1.0375658598
Bq        -0.0475067368    -1.3536551149    -1.0254492346
Bq        -0.0530099735    -1.3054586235    -1.0133326094
Bq        -0.0585132101    -1.2572621321    -1.0012159842
Bq        -0.0640164468    -1.2090656408    -0.9890993589
Bq        -0.0695196835    -1.1608691494    -0.9769827337
Bq        -0.0750229202    -1.1126726581    -0.9648661085
Bq        -0.0805261569    -1.0644761667    -0.9527494832
Bq        -0.0860293936    -1.0162796754    -0.9406328580
Bq        -0.0915326303    -0.9680831840    -0.9285162328
Bq        -0.0970358670    -0.9198866927    -0.9163996076
Bq        -0.1025391036    -0.8716902013    -0.9042829823
Bq        -0.1080423403    -0.8234937099    -0.8921663571
Bq        -0.1135455770    -0.7752972186    -0.8800497319
Bq        -0.1190488137    -0.7271007272    -0.8679331066
Bq        -0.1245520504    -0.6789042359    -0.8558164814
Bq        -0.1300552871    -0.6307077445    -0.8436998562
Bq        -0.1355585238    -0.5825112532    -0.8315832310
Bq        -0.1410617604    -0.5343147618    -0.8194666057
Bq        -0.1465649971    -0.4861182704    -0.8073499805
Bq        -0.1520682338    -0.4379217791    -0.7952333553
Bq        -0.1575714705    -0.3897252877    -0.7831167300
Bq        -0.1630747072    -0.3415287964    -0.7710001048
Bq        -0.1685779439    -0.2933323050    -0.7588834796
Bq        -0.1740811806    -0.2451358137    -0.7467668543
Bq        -0.1795844172    -0.1969393223    -0.7346502291
Bq        -0.1850876539    -0.1487428310    -0.7225336039
Bq        -0.1905908906    -0.1005463396    -0.7104169787
Bq        -0.1960941273    -0.0523498482    -0.6983003534
Bq        -0.2015973640    -0.0041533569    -0.6861837282
Bq        -0.2071006007     0.0440431345    -0.6740671030
Bq         0.3887475046    -4.7756060011    -1.8650529321
Bq         0.3832442679    -4.7274095098    -1.8529363068
Bq         0.3777410312    -4.6792130184    -1.8408196816
Bq         0.3722377945    -4.6310165271    -1.8287030564
Bq         0.3667345578    -4.5828200357    -1.8165864311
Bq         0.3612313212    -4.5346235444    -1.8044698059
Bq         0.3557280845    -4.4864270530    -1.7923531807
Bq         0.3502248478    -4.4382305616    -1.7802365555
Bq         0.3447216111    -4.3900340703    -1.7681199302
Bq         0.3392183744    -4.3418375789    -1.7560033050
Bq         0.3337151377    -4.2936410876    -1.7438866798
Bq         0.3282119010    -4.2454445962    -1.7317700545
Bq         0.3227086644    -4.1972481049    -1.7196534293
Bq         0.3172054277    -4.1490516135    -1.7075368041
Bq         0.3117021910    -4.1008551222    -1.6954201789
Bq         0.3061989543    -4.0526586308    -1.6833035536
Bq         0.3006957176    -4.0044621394    -1.6711869284
Bq         0.2951924809    -3.9562656481    -1.6590703032
Bq         0.2896892442    -3.9080691567    -1.6469536779
Bq         0.2841860076    -3.8598726654    -1.6348370527
Bq         0.2786827709    -3.8116761740    -1.6227204275
Bq         0.2731795342    -3.7634796827    -1.6106038023
Bq         0.2676762975    -3.7152831913    -1.5984871770
Bq         0.2621730608    -3.6670866999    -1.5863705518
Bq         0.2566698241    -3.6188902086    -1.5742539266
Bq         0.2511665874    -3.5706937172    -1.5621373013
Bq         0.2456633508    -3.5224972259    -1.5500206761
Bq         0.2401601141    -3.4743007345    -1.5379040509
Bq         0.2346568774    -3.4261042432    -1.5257874256
Bq         0.2291536407    -3.3779077518    -1.5136708004
Bq         0.2236504040    -3.3297112605    -1.5015541752
Bq         0.2181471673    -3.2815147691    -1.4894375500
Bq         0.2126439306    -3.2333182777    -1.4773209247
Bq         0.2071406940    -3.1851217864    -1.4652042995
Bq         0.2016374573    -3.1369252950    -1.4530876743
Bq         0.1961342206    -3.0887288037    -1.4409710490
Bq         0.1906309839    -3.0405323123    -1.4288544238
Bq         0.1851277472    -2.9923358210    -1.4167377986
Bq         0.1796245105    -2.9441393296    -1.4046211734
Bq         0.1741212738    -2.8959428383    -1.3925045481
Bq         0.1686180371    -2.8477463469    -1.3803879229
Bq         0.1631148005    -2.7995498555    -1.3682712977
Bq         0.1576115638    -2.7513533642    -1.3561546724
Bq         0.1521083271    -2.7031568728    -1.3440380472
Bq         0.1466050904    -2.6549603815    -1.3319214220
Bq         0.1411018537    -2.6067638901    -1.3198047968
Bq         0.1355986170    -2.5585673988    -1.3076881715
Bq         0.1300953803    -2.5103709074    -1.2955715463
Bq         0.1245921437    -2.4621744160    -1.2834549211
Bq         0.1190889070    -2.4139779247    -1.2713382958
Bq         0.1135856703    -2.3657814333    -1.2592216706
Bq         0.1080824336    -2.3175849420    -1.2471050454
Bq         0.1025791969    -2.2693884506    -1.2349884202
Bq         0.0970759602    -2.2211919593    -1.2228717949
Bq         0.0915727235    -2.1729954679    -1.2107551697
Bq         0.0860694869    -2.1247989766    -1.1986385445
Bq         0.0805662502    -2.0766024852    -1.1865219192
Bq         0.0750630135    -2.0284059938    -1.1744052940
Bq         0.0695597768    -1.9802095025    -1.1622886688
Bq         0.0640565401    -1.9320130111    -1.1501720436
Bq         0.0585533034    -1.8838165198    -1.1380554183
Bq         0.0530500667    -1.8356200284    -1.1259387931
Bq         0.0475468301    -1.7874235371    -1.1138221679
Bq         0.0420435934    -1.7392270457    -1.1017055426
Bq         0.0365403567    -1.6910305543    -1.0895889174
Bq         0.0310371200    -1.6428340630    -1.0774722922
Bq         0.0255338833    -1.5946375716    -1.0653556669
Bq         0.0200306466    -1.5464410803    -1.0532390417
Bq         0.0145274099    -1.4982445889    -1.0411224165
Bq         0.0090241733    -1.4500480976    -1.0290057913
Bq         0.0035209366    -1.4018516062    -1.0168891660
Bq        -0.0019823001    -1.3536551149    -1.0047725408
Bq        -0.0074855368    -1.3054586235    -0.9926559156
Bq        -0.0129887735    -1.2572621321    -0.9805392903
Bq        -0.0184920102    -1.2090656408    -0.9684226651
Bq        -0.0239952469    -1.1608691494    -0.9563060399
Bq        -0.0294984835    -1.1126726581    -0.9441894147
Bq        -0.0350017202    -1.0644761667    -0.9320727894

1
2
3
4
5
6
7
8
9
10
11
12
13
14
15
16
17
18
19
20
21
22
23
24
25
26
27
28
29
30
31
32
33
34
35
36
37
38
39
40
41
42
43
44
45
46
47
48
49
50
51
52
53
54
55
56
57
58
59
60
61
62
63
64
65
66
67
68
69
70
71
72
73
74
75
76
77
78
79
80
81
82
83
84
85
86
87
88
89
90
91
92
93
94
95
96
97
98
99
100
101
102
103
104
105
106
107
108
109
110
111
112
113
114
115
116
117
118
119
120
121
122
123
124
125
126
127
128
129
130
131
132
133
134
135
136
137
138
139
140
141
142
143
144
145
146
147
148
149
150
151
152
153
154
155
156
157
158
159
160
161
162
163
164
165
166
167
168
169
170
171
172
173
174
175
176
177
178
179
180
181
182
183
184
185
186
187
188
189
190
191
192
193
194
195
196
197
198
199
200
201
202
203
204
205
206
207
208
209
210
211
212
213
214
215
216
217
218
219
220
221
222
223
224
225
226
227
228
229
230
231
232
233
234
235
236

