%nproc=8
%mem=1000MB
# rb3lyp/6-311+g** NMR geom=connectivity

Title

0 1
C    -4.0500558   -0.5771862    0.8136712
H    -5.0263804   -1.0082727    1.0024760
C    -3.9381552    0.6617804    0.2400876
H    -4.8252424    1.2338890   -0.0111295
C    -2.6768410    1.2433246    0.0057578
C    -1.4974121    0.5051527    0.2848253
C    -1.6508332   -0.7338728    0.9404026
H    -0.7713646   -1.2730967    1.2633753
C    -2.8898548   -1.2624035    1.1994307
H    -2.9683706   -2.2124563    1.7152676
C    -2.5773185    2.5963696   -0.4192930
H    -3.4870728    3.1412239   -0.6474055
C    -1.3741895    3.2147896   -0.4364030
H    -1.2997315    4.2742019   -0.6578144
C    -0.1719488    2.4994090   -0.1734588
C    -0.2043917    1.1018437    0.0192689
C     1.0513491    3.2042560   -0.0676222
H     1.0427344    4.2819499   -0.1896997
C     2.1942091    2.5487446    0.2579577
H     3.1168527    3.0912848    0.4334727
C     2.2216473    1.1336562    0.2934990
C     1.0486931    0.3945528    0.0302412
C     3.4483363    0.4614633    0.5573939
H     4.3095794    1.0606054    0.8334846
C     3.5427346   -0.8855926    0.4749463
H     4.4731467   -1.3939704    0.7038822
C     2.4490052   -1.6474447   -0.0196319
C     1.2150704   -1.0057258   -0.3013573
C     0.2531113   -1.7434440   -1.0216591
H    -0.6541356   -1.2535051   -1.3462847
C     0.4494193   -3.0628597   -1.3413779
H    -0.3083162   -3.5944309   -1.9054060
C     1.6251726   -3.7207967   -0.9552541
H     1.7670048   -4.7687404   -1.1927019
C     2.6109872   -3.0144177   -0.3183050
H     3.5525612   -3.4902813   -0.0646367
Bq         0.8688841502     1.1275759165    -0.0112875821
Bq         0.8670386249     1.1770672635    -0.0044173123
Bq         0.8651930996     1.2265586105     0.0024529574
Bq         0.8633475744     1.2760499576     0.0093232272
Bq         0.8615020491     1.3255413046     0.0161934970
Bq         0.8596565238     1.3750326516     0.0230637668
Bq         0.8578109986     1.4245239986     0.0299340366
Bq         0.8559654733     1.4740153456     0.0368043063
Bq         0.8541199480     1.5235066926     0.0436745761
Bq         0.8522744228     1.5729980397     0.0505448459
Bq         0.8504288975     1.6224893867     0.0574151157
Bq         0.8485833722     1.6719807337     0.0642853855
Bq         0.8467378470     1.7214720807     0.0711556552
Bq         0.8448923217     1.7709634277     0.0780259250
Bq         0.8430467964     1.8204547748     0.0848961948
Bq         0.8412012711     1.8699461218     0.0917664646
Bq         0.8393557459     1.9194374688     0.0986367344
Bq         0.8375102206     1.9689288158     0.1055070041
Bq         0.8356646953     2.0184201628     0.1123772739
Bq         0.8338191701     2.0679115098     0.1192475437
Bq         0.8319736448     2.1174028569     0.1261178135
Bq         0.8301281195     2.1668942039     0.1329880833
Bq         0.8282825943     2.2163855509     0.1398583530
Bq         1.0611232461    -2.7327491509    -0.5341972340
Bq         1.0592777208    -2.6832578039    -0.5273269642
Bq         1.0574321955    -2.6337664569    -0.5204566945
Bq         1.0555866703    -2.5842751098    -0.5135864247
Bq         1.0537411450    -2.5347837628    -0.5067161549
Bq         1.0518956197    -2.4852924158    -0.4998458851
Bq         1.0500500945    -2.4358010688    -0.4929756153
Bq         1.0482045692    -2.3863097218    -0.4861053456
Bq         1.0463590439    -2.3368183748    -0.4792350758
Bq         1.0445135187    -2.2873270277    -0.4723648060
Bq         1.0426679934    -2.2378356807    -0.4654945362
Bq         1.0408224681    -2.1883443337    -0.4586242664
Bq         1.0389769429    -2.1388529867    -0.4517539967
Bq         1.0371314176    -2.0893616397    -0.4448837269
Bq         1.0352858923    -2.0398702926    -0.4380134571
Bq         1.0334403671    -1.9903789456    -0.4311431873
Bq         1.0315948418    -1.9408875986    -0.4242729175
Bq         1.0297493165    -1.8913962516    -0.4174026478
Bq         1.0279037912    -1.8419049046    -0.4105323780
Bq         1.0260582660    -1.7924135576    -0.4036621082
Bq         1.0242127407    -1.7429222105    -0.3967918384
Bq         1.0223672154    -1.6934308635    -0.3899215686
Bq         1.0205216902    -1.6439395165    -0.3830512989
Bq         1.0186761649    -1.5944481695    -0.3761810291
Bq         1.0168306396    -1.5449568225    -0.3693107593
Bq         1.0149851144    -1.4954654754    -0.3624404895
Bq         1.0131395891    -1.4459741284    -0.3555702198
Bq         1.0112940638    -1.3964827814    -0.3486999500
Bq         1.0094485386    -1.3469914344    -0.3418296802
Bq         1.0076030133    -1.2975000874    -0.3349594104
Bq         1.0057574880    -1.2480087404    -0.3280891406
Bq         1.0039119628    -1.1985173933    -0.3212188709
Bq         1.0020664375    -1.1490260463    -0.3143486011
Bq         1.0002209122    -1.0995346993    -0.3074783313
Bq         0.9983753870    -1.0500433523    -0.3006080615
Bq         0.9965298617    -1.0005520053    -0.2937377917
Bq         0.9946843364    -0.9510606583    -0.2868675220
Bq         0.9928388112    -0.9015693112    -0.2799972522
Bq         0.9909932859    -0.8520779642    -0.2731269824
Bq         0.9891477606    -0.8025866172    -0.2662567126
Bq         0.9873022354    -0.7530952702    -0.2593864428
Bq         0.9854567101    -0.7036039232    -0.2525161731
Bq         0.9836111848    -0.6541125761    -0.2456459033
Bq         0.9817656596    -0.6046212291    -0.2387756335
Bq         0.9799201343    -0.5551298821    -0.2319053637
Bq         0.9780746090    -0.5056385351    -0.2250350939
Bq         0.9762290838    -0.4561471881    -0.2181648242
Bq         0.9743835585    -0.4066558411    -0.2112945544
Bq         0.9725380332    -0.3571644940    -0.2044242846
Bq         0.9706925079    -0.3076731470    -0.1975540148
Bq         0.9688469827    -0.2581818000    -0.1906837450
Bq         0.9670014574    -0.2086904530    -0.1838134753
Bq         0.9651559321    -0.1591991060    -0.1769432055
Bq         0.9633104069    -0.1097077589    -0.1700729357
Bq         0.9614648816    -0.0602164119    -0.1632026659
Bq         0.9596193563    -0.0107250649    -0.1563323961
Bq         0.9577738311     0.0387662821    -0.1494621264
Bq         0.9559283058     0.0882576291    -0.1425918566
Bq         0.9540827805     0.1377489761    -0.1357215868
Bq         0.9522372553     0.1872403232    -0.1288513170
Bq         0.9503917300     0.2367316702    -0.1219810473
Bq         0.9485462047     0.2862230172    -0.1151107775
Bq         0.9467006795     0.3357143642    -0.1082405077
Bq         0.9448551542     0.3852057112    -0.1013702379
Bq         0.9430096289     0.4346970583    -0.0944999681
Bq         0.9411641037     0.4841884053    -0.0876296984
Bq         0.9393185784     0.5336797523    -0.0807594286
Bq         0.9374730531     0.5831710993    -0.0738891588
Bq         0.9356275279     0.6326624463    -0.0670188890
Bq         0.9337820026     0.6821537933    -0.0601486192
Bq         0.9319364773     0.7316451404    -0.0532783495
Bq         0.9300909521     0.7811364874    -0.0464080797
Bq         0.9282454268     0.8306278344    -0.0395378099
Bq         0.9263999015     0.8801191814    -0.0326675401
Bq         0.9245543763     0.9296105284    -0.0257972703
Bq         0.9227088510     0.9791018754    -0.0189270006
Bq         0.9208633257     1.0285932225    -0.0120567308
Bq         0.9190178005     1.0780845695    -0.0051864610
Bq         0.9171722752     1.1275759165     0.0016838088
Bq         0.9153267499     1.1770672635     0.0085540786
Bq         0.9134812247     1.2265586105     0.0154243483
Bq         0.9116356994     1.2760499576     0.0222946181
Bq         0.9097901741     1.3255413046     0.0291648879
Bq         0.9079446488     1.3750326516     0.0360351577
Bq         0.9060991236     1.4245239986     0.0429054275
Bq         0.9042535983     1.4740153456     0.0497756972
Bq         0.9024080730     1.5235066926     0.0566459670
Bq         0.9005625478     1.5729980397     0.0635162368
Bq         0.8987170225     1.6224893867     0.0703865066
Bq         0.8968714972     1.6719807337     0.0772567764
Bq         0.8950259720     1.7214720807     0.0841270461
Bq         0.8931804467     1.7709634277     0.0909973159
Bq         0.8913349214     1.8204547748     0.0978675857
Bq         0.8894893962     1.8699461218     0.1047378555
Bq         0.8876438709     1.9194374688     0.1116081252
Bq         0.8857983456     1.9689288158     0.1184783950
Bq         0.8839528204     2.0184201628     0.1253486648
Bq         0.8821072951     2.0679115098     0.1322189346
Bq         0.8802617698     2.1174028569     0.1390892044
Bq         0.8784162446     2.1668942039     0.1459594741
Bq         0.8765707193     2.2163855509     0.1528297439
Bq         1.1094113711    -2.7327491509    -0.5212258431
Bq         1.1075658458    -2.6832578039    -0.5143555733
Bq         1.1057203206    -2.6337664569    -0.5074853036
Bq         1.1038747953    -2.5842751098    -0.5006150338
Bq         1.1020292700    -2.5347837628    -0.4937447640
Bq         1.1001837448    -2.4852924158    -0.4868744942
Bq         1.0983382195    -2.4358010688    -0.4800042244
Bq         1.0964926942    -2.3863097218    -0.4731339547
Bq         1.0946471689    -2.3368183748    -0.4662636849
Bq         1.0928016437    -2.2873270277    -0.4593934151
Bq         1.0909561184    -2.2378356807    -0.4525231453
Bq         1.0891105931    -2.1883443337    -0.4456528755
Bq         1.0872650679    -2.1388529867    -0.4387826058
Bq         1.0854195426    -2.0893616397    -0.4319123360
Bq         1.0835740173    -2.0398702926    -0.4250420662
Bq         1.0817284921    -1.9903789456    -0.4181717964
Bq         1.0798829668    -1.9408875986    -0.4113015267
Bq         1.0780374415    -1.8913962516    -0.4044312569
Bq         1.0761919163    -1.8419049046    -0.3975609871
Bq         1.0743463910    -1.7924135576    -0.3906907173
Bq         1.0725008657    -1.7429222105    -0.3838204475
Bq         1.0706553405    -1.6934308635    -0.3769501778
Bq         1.0688098152    -1.6439395165    -0.3700799080
Bq         1.0669642899    -1.5944481695    -0.3632096382
Bq         1.0651187647    -1.5449568225    -0.3563393684
Bq         1.0632732394    -1.4954654754    -0.3494690986
Bq         1.0614277141    -1.4459741284    -0.3425988289
Bq         1.0595821889    -1.3964827814    -0.3357285591
Bq         1.0577366636    -1.3469914344    -0.3288582893
Bq         1.0558911383    -1.2975000874    -0.3219880195
Bq         1.0540456131    -1.2480087404    -0.3151177497
Bq         1.0522000878    -1.1985173933    -0.3082474800
Bq         1.0503545625    -1.1490260463    -0.3013772102
Bq         1.0485090373    -1.0995346993    -0.2945069404
Bq         1.0466635120    -1.0500433523    -0.2876366706
Bq         1.0448179867    -1.0005520053    -0.2807664008
Bq         1.0429724615    -0.9510606583    -0.2738961311
Bq         1.0411269362    -0.9015693112    -0.2670258613
Bq         1.0392814109    -0.8520779642    -0.2601555915
Bq         1.0374358856    -0.8025866172    -0.2532853217
Bq         1.0355903604    -0.7530952702    -0.2464150519
Bq         1.0337448351    -0.7036039232    -0.2395447822
Bq         1.0318993098    -0.6541125761    -0.2326745124
Bq         1.0300537846    -0.6046212291    -0.2258042426
Bq         1.0282082593    -0.5551298821    -0.2189339728
Bq         1.0263627340    -0.5056385351    -0.2120637030
Bq         1.0245172088    -0.4561471881    -0.2051934333
Bq         1.0226716835    -0.4066558411    -0.1983231635
Bq         1.0208261582    -0.3571644940    -0.1914528937
Bq         1.0189806330    -0.3076731470    -0.1845826239
Bq         1.0171351077    -0.2581818000    -0.1777123542
Bq         1.0152895824    -0.2086904530    -0.1708420844
Bq         1.0134440572    -0.1591991060    -0.1639718146
Bq         1.0115985319    -0.1097077589    -0.1571015448
Bq         1.0097530066    -0.0602164119    -0.1502312750
Bq         1.0079074814    -0.0107250649    -0.1433610053
Bq         1.0060619561     0.0387662821    -0.1364907355
Bq         1.0042164308     0.0882576291    -0.1296204657
Bq         1.0023709056     0.1377489761    -0.1227501959
Bq         1.0005253803     0.1872403232    -0.1158799261
Bq         0.9986798550     0.2367316702    -0.1090096564
Bq         0.9968343298     0.2862230172    -0.1021393866
Bq         0.9949888045     0.3357143642    -0.0952691168
Bq         0.9931432792     0.3852057112    -0.0883988470
Bq         0.9912977540     0.4346970583    -0.0815285772
Bq         0.9894522287     0.4841884053    -0.0746583075
Bq         0.9876067034     0.5336797523    -0.0677880377
Bq         0.9857611782     0.5831710993    -0.0609177679
Bq         0.9839156529     0.6326624463    -0.0540474981
Bq         0.9820701276     0.6821537933    -0.0471772283
Bq         0.9802246024     0.7316451404    -0.0403069586
Bq         0.9783790771     0.7811364874    -0.0334366888
Bq         0.9765335518     0.8306278344    -0.0265664190
Bq         0.9746880265     0.8801191814    -0.0196961492
Bq         0.9728425013     0.9296105284    -0.0128258794
Bq         0.9709969760     0.9791018754    -0.0059556097

1
2
3
4
5
6
7
8
9
10
11
12
13
14
15
16
17
18
19
20
21
22
23
24
25
26
27
28
29
30
31
32
33
34
35
36
37
38
39
40
41
42
43
44
45
46
47
48
49
50
51
52
53
54
55
56
57
58
59
60
61
62
63
64
65
66
67
68
69
70
71
72
73
74
75
76
77
78
79
80
81
82
83
84
85
86
87
88
89
90
91
92
93
94
95
96
97
98
99
100
101
102
103
104
105
106
107
108
109
110
111
112
113
114
115
116
117
118
119
120
121
122
123
124
125
126
127
128
129
130
131
132
133
134
135
136
137
138
139
140
141
142
143
144
145
146
147
148
149
150
151
152
153
154
155
156
157
158
159
160
161
162
163
164
165
166
167
168
169
170
171
172
173
174
175
176
177
178
179
180
181
182
183
184
185
186
187
188
189
190
191
192
193
194
195
196
197
198
199
200
201
202
203
204
205
206
207
208
209
210
211
212
213
214
215
216
217
218
219
220
221
222
223
224
225
226
227
228
229
230
231
232
233
234
235
236

