%nproc=8
%mem=1000MB
# rb3lyp/6-311+g** NMR geom=connectivity

Title

0 1
C    -4.0500558   -0.5771862    0.8136712
H    -5.0263804   -1.0082727    1.0024760
C    -3.9381552    0.6617804    0.2400876
H    -4.8252424    1.2338890   -0.0111295
C    -2.6768410    1.2433246    0.0057578
C    -1.4974121    0.5051527    0.2848253
C    -1.6508332   -0.7338728    0.9404026
H    -0.7713646   -1.2730967    1.2633753
C    -2.8898548   -1.2624035    1.1994307
H    -2.9683706   -2.2124563    1.7152676
C    -2.5773185    2.5963696   -0.4192930
H    -3.4870728    3.1412239   -0.6474055
C    -1.3741895    3.2147896   -0.4364030
H    -1.2997315    4.2742019   -0.6578144
C    -0.1719488    2.4994090   -0.1734588
C    -0.2043917    1.1018437    0.0192689
C     1.0513491    3.2042560   -0.0676222
H     1.0427344    4.2819499   -0.1896997
C     2.1942091    2.5487446    0.2579577
H     3.1168527    3.0912848    0.4334727
C     2.2216473    1.1336562    0.2934990
C     1.0486931    0.3945528    0.0302412
C     3.4483363    0.4614633    0.5573939
H     4.3095794    1.0606054    0.8334846
C     3.5427346   -0.8855926    0.4749463
H     4.4731467   -1.3939704    0.7038822
C     2.4490052   -1.6474447   -0.0196319
C     1.2150704   -1.0057258   -0.3013573
C     0.2531113   -1.7434440   -1.0216591
H    -0.6541356   -1.2535051   -1.3462847
C     0.4494193   -3.0628597   -1.3413779
H    -0.3083162   -3.5944309   -1.9054060
C     1.6251726   -3.7207967   -0.9552541
H     1.7670048   -4.7687404   -1.1927019
C     2.6109872   -3.0144177   -0.3183050
H     3.5525612   -3.4902813   -0.0646367
Bq         3.4295873696    -0.6832366678     0.5366108292
Bq         3.4299434366    -0.6332970601     0.5341800268
Bq         3.4302995036    -0.5833574524     0.5317492245
Bq         3.4306555706    -0.5334178447     0.5293184221
Bq         3.4310116375    -0.4834782370     0.5268876197
Bq         3.4313677045    -0.4335386293     0.5244568173
Bq         3.4317237715    -0.3835990216     0.5220260149
Bq         3.4320798384    -0.3336594139     0.5195952125
Bq         3.4324359054    -0.2837198063     0.5171644102
Bq         3.4327919724    -0.2337801986     0.5147336078
Bq         3.4331480394    -0.1838405909     0.5123028054
Bq         3.4335041063    -0.1339009832     0.5098720030
Bq         3.4338601733    -0.0839613755     0.5074412006
Bq         3.4342162403    -0.0340217678     0.5050103982
Bq         3.4345723072     0.0159178399     0.5025795959
Bq         3.4349283742     0.0658574476     0.5001487935
Bq         3.4352844412     0.1157970553     0.4977179911
Bq         3.4356405081     0.1657366629     0.4952871887
Bq         3.4359965751     0.2156762706     0.4928563863
Bq         3.4363526421     0.2656158783     0.4904255839
Bq         3.4367087091     0.3155554860     0.4879947816
Bq         3.4370647760     0.3654950937     0.4855639792
Bq         3.4374208430     0.4154347014     0.4831331768
Bq         3.4377769100     0.4653743091     0.4807023744
Bq         3.4381329769     0.5153139168     0.4782715720
Bq         3.4384890439     0.5652535245     0.4758407696
Bq         3.4388451109     0.6151931321     0.4734099673
Bq         3.4392011779     0.6651327398     0.4709791649
Bq         3.4395572448     0.7150723475     0.4685483625
Bq         3.4399133118     0.7650119552     0.4661175601
Bq         3.4402693788     0.8149515629     0.4636867577
Bq         3.4406254457     0.8648911706     0.4612559553
Bq         3.4409815127     0.9148307783     0.4588251530
Bq         3.4413375797     0.9647703860     0.4563943506
Bq         3.4416936467     1.0147099936     0.4539635482
Bq         3.4420497136     1.0646496013     0.4515327458
Bq         3.4424057806     1.1145892090     0.4491019434
Bq         3.4427618476     1.1645288167     0.4466711410
Bq         3.4431179145     1.2144684244     0.4442403387
Bq         3.4434739815     1.2644080321     0.4418095363
Bq         3.4438300485     1.3143476398     0.4393787339
Bq         3.4441861154     1.3642872475     0.4369479315
Bq         3.4445421824     1.4142268552     0.4345171291
Bq         3.4448982494     1.4641664628     0.4320863267
Bq         3.4452543164     1.5141060705     0.4296555244
Bq         3.4456103833     1.5640456782     0.4272247220
Bq         3.4459664503     1.6139852859     0.4247939196
Bq         3.4463225173     1.6639248936     0.4223631172
Bq         3.4466785842     1.7138645013     0.4199323148
Bq         3.4470346512     1.7638041090     0.4175015124
Bq         3.4473907182     1.8137437167     0.4150707101
Bq         3.4477467852     1.8636833244     0.4126399077
Bq         3.4481028521     1.9136229320     0.4102091053
Bq         3.4484589191     1.9635625397     0.4077783029
Bq         3.4488149861     2.0135021474     0.4053475005
Bq         3.4491710530     2.0634417551     0.4029166981
Bq         3.4495271200     2.1133813628     0.4004858958
Bq         3.4498831870     2.1633209705     0.3980550934
Bq         3.4502392540     2.2132605782     0.3956242910
Bq         3.4505953209     2.2632001859     0.3931934886
Bq         3.4509513879     2.3131397936     0.3907626862
Bq         3.4513074549     2.3630794012     0.3883318838
Bq         3.4516635218     2.4130190089     0.3859010815
Bq         3.4520195888     2.4629586166     0.3834702791
Bq         3.4523756558     2.5128982243     0.3810394767
Bq         3.4527317227     2.5628378320     0.3786086743
Bq         3.4530877897     2.6127774397     0.3761778719
Bq         3.4534438567     2.6627170474     0.3737470695
Bq         3.4537999237     2.7126566551     0.3713162672
Bq         3.4541559906     2.7625962627     0.3688854648
Bq         3.4545120576     2.8125358704     0.3664546624
Bq         3.4548681246     2.8624754781     0.3640238600
Bq         3.4552241915     2.9124150858     0.3615930576
Bq         3.4555802585     2.9623546935     0.3591622552
Bq         3.4559363255     3.0122943012     0.3567314529
Bq         3.4562923925     3.0622339089     0.3543006505
Bq         3.4566484594     3.1121735166     0.3518698481
Bq         3.4570045264     3.1621131243     0.3494390457
Bq         3.4573605934     3.2120527319     0.3470082433
Bq         3.4577166603     3.2619923396     0.3445774409
Bq         3.4580727273     3.3119319473     0.3421466386
Bq         3.4584287943     3.3618715550     0.3397158362
Bq         3.4587848613     3.4118111627     0.3372850338
Bq         3.4591409282     3.4617507704     0.3348542314
Bq         3.4594969952     3.5116903781     0.3324234290
Bq         3.4598530622     3.5616299858     0.3299926266
Bq         3.4602091291     3.6115695935     0.3275618243
Bq         3.4605651961     3.6615092011     0.3251310219
Bq         3.4609212631     3.7114488088     0.3227002195
Bq         3.4612773300     3.7613884165     0.3202694171
Bq         3.4616333970     3.8113280242     0.3178386147
Bq         3.4619894640     3.8612676319     0.3154078123
Bq         3.4623455310     3.9112072396     0.3129770100
Bq         3.4627015979     3.9611468473     0.3105462076
Bq         3.4630576649     4.0110864550     0.3081154052
Bq         3.4634137319     4.0610260627     0.3056846028
Bq         3.4637697988     4.1109656703     0.3032538004
Bq         3.4641258658     4.1609052780     0.3008229980
Bq         3.4644819328     4.2108448857     0.2983921957
Bq         3.4648379998     4.2607844934     0.2959613933
Bq         3.4651940667     4.3107241011     0.2935305909
Bq         3.4790594316    -0.6832366678     0.5438575587
Bq         3.4794154986    -0.6332970601     0.5414267563
Bq         3.4797715655    -0.5833574524     0.5389959539
Bq         3.4801276325    -0.5334178447     0.5365651515
Bq         3.4804836995    -0.4834782370     0.5341343491
Bq         3.4808397664    -0.4335386293     0.5317035468
Bq         3.4811958334    -0.3835990216     0.5292727444
Bq         3.4815519004    -0.3336594139     0.5268419420
Bq         3.4819079673    -0.2837198063     0.5244111396
Bq         3.4822640343    -0.2337801986     0.5219803372
Bq         3.4826201013    -0.1838405909     0.5195495348
Bq         3.4829761683    -0.1339009832     0.5171187325
Bq         3.4833322352    -0.0839613755     0.5146879301
Bq         3.4836883022    -0.0340217678     0.5122571277
Bq         3.4840443692     0.0159178399     0.5098263253
Bq         3.4844004361     0.0658574476     0.5073955229
Bq         3.4847565031     0.1157970553     0.5049647205
Bq         3.4851125701     0.1657366629     0.5025339182
Bq         3.4854686371     0.2156762706     0.5001031158
Bq         3.4858247040     0.2656158783     0.4976723134
Bq         3.4861807710     0.3155554860     0.4952415110
Bq         3.4865368380     0.3654950937     0.4928107086
Bq         3.4868929049     0.4154347014     0.4903799062
Bq         3.4872489719     0.4653743091     0.4879491039
Bq         3.4876050389     0.5153139168     0.4855183015
Bq         3.4879611059     0.5652535245     0.4830874991
Bq         3.4883171728     0.6151931321     0.4806566967
Bq         3.4886732398     0.6651327398     0.4782258943
Bq         3.4890293068     0.7150723475     0.4757950919
Bq         3.4893853737     0.7650119552     0.4733642896
Bq         3.4897414407     0.8149515629     0.4709334872
Bq         3.4900975077     0.8648911706     0.4685026848
Bq         3.4904535746     0.9148307783     0.4660718824
Bq         3.4908096416     0.9647703860     0.4636410800
Bq         3.4911657086     1.0147099936     0.4612102776
Bq         3.4915217756     1.0646496013     0.4587794753
Bq         3.4918778425     1.1145892090     0.4563486729
Bq         3.4922339095     1.1645288167     0.4539178705
Bq         3.4925899765     1.2144684244     0.4514870681
Bq         3.4929460434     1.2644080321     0.4490562657
Bq         3.4933021104     1.3143476398     0.4466254633
Bq         3.4936581774     1.3642872475     0.4441946610
Bq         3.4940142444     1.4142268552     0.4417638586
Bq         3.4943703113     1.4641664628     0.4393330562
Bq         3.4947263783     1.5141060705     0.4369022538
Bq         3.4950824453     1.5640456782     0.4344714514
Bq         3.4954385122     1.6139852859     0.4320406490
Bq         3.4957945792     1.6639248936     0.4296098467
Bq         3.4961506462     1.7138645013     0.4271790443
Bq         3.4965067132     1.7638041090     0.4247482419
Bq         3.4968627801     1.8137437167     0.4223174395
Bq         3.4972188471     1.8636833244     0.4198866371
Bq         3.4975749141     1.9136229320     0.4174558347
Bq         3.4979309810     1.9635625397     0.4150250324
Bq         3.4982870480     2.0135021474     0.4125942300
Bq         3.4986431150     2.0634417551     0.4101634276
Bq         3.4989991819     2.1133813628     0.4077326252
Bq         3.4993552489     2.1633209705     0.4053018228
Bq         3.4997113159     2.2132605782     0.4028710204
Bq         3.5000673829     2.2632001859     0.4004402181
Bq         3.5004234498     2.3131397936     0.3980094157
Bq         3.5007795168     2.3630794012     0.3955786133
Bq         3.5011355838     2.4130190089     0.3931478109
Bq         3.5014916507     2.4629586166     0.3907170085
Bq         3.5018477177     2.5128982243     0.3882862062
Bq         3.5022037847     2.5628378320     0.3858554038
Bq         3.5025598517     2.6127774397     0.3834246014
Bq         3.5029159186     2.6627170474     0.3809937990
Bq         3.5032719856     2.7126566551     0.3785629966
Bq         3.5036280526     2.7625962627     0.3761321942
Bq         3.5039841195     2.8125358704     0.3737013919
Bq         3.5043401865     2.8624754781     0.3712705895
Bq         3.5046962535     2.9124150858     0.3688397871
Bq         3.5050523205     2.9623546935     0.3664089847
Bq         3.5054083874     3.0122943012     0.3639781823
Bq         3.5057644544     3.0622339089     0.3615473799
Bq         3.5061205214     3.1121735166     0.3591165776
Bq         3.5064765883     3.1621131243     0.3566857752
Bq         3.5068326553     3.2120527319     0.3542549728
Bq         3.5071887223     3.2619923396     0.3518241704
Bq         3.5075447892     3.3119319473     0.3493933680
Bq         3.5079008562     3.3618715550     0.3469625656
Bq         3.5082569232     3.4118111627     0.3445317633
Bq         3.5086129902     3.4617507704     0.3421009609
Bq         3.5089690571     3.5116903781     0.3396701585
Bq         3.5093251241     3.5616299858     0.3372393561
Bq         3.5096811911     3.6115695935     0.3348085537
Bq         3.5100372580     3.6615092011     0.3323777513
Bq         3.5103933250     3.7114488088     0.3299469490
Bq         3.5107493920     3.7613884165     0.3275161466
Bq         3.5111054590     3.8113280242     0.3250853442
Bq         3.5114615259     3.8612676319     0.3226545418
Bq         3.5118175929     3.9112072396     0.3202237394
Bq         3.5121736599     3.9611468473     0.3177929370
Bq         3.5125297268     4.0110864550     0.3153621347
Bq         3.5128857938     4.0610260627     0.3129313323
Bq         3.5132418608     4.1109656703     0.3105005299
Bq         3.5135979278     4.1609052780     0.3080697275
Bq         3.5139539947     4.2108448857     0.3056389251

1
2
3
4
5
6
7
8
9
10
11
12
13
14
15
16
17
18
19
20
21
22
23
24
25
26
27
28
29
30
31
32
33
34
35
36
37
38
39
40
41
42
43
44
45
46
47
48
49
50
51
52
53
54
55
56
57
58
59
60
61
62
63
64
65
66
67
68
69
70
71
72
73
74
75
76
77
78
79
80
81
82
83
84
85
86
87
88
89
90
91
92
93
94
95
96
97
98
99
100
101
102
103
104
105
106
107
108
109
110
111
112
113
114
115
116
117
118
119
120
121
122
123
124
125
126
127
128
129
130
131
132
133
134
135
136
137
138
139
140
141
142
143
144
145
146
147
148
149
150
151
152
153
154
155
156
157
158
159
160
161
162
163
164
165
166
167
168
169
170
171
172
173
174
175
176
177
178
179
180
181
182
183
184
185
186
187
188
189
190
191
192
193
194
195
196
197
198
199
200
201
202
203
204
205
206
207
208
209
210
211
212
213
214
215
216
217
218
219
220
221
222
223
224
225
226
227
228
229
230
231
232
233
234
235
236

