%nproc=8
%mem=1000MB
# rb3lyp/6-311+g** NMR geom=connectivity

Title

0 1
C    -4.0500558   -0.5771862    0.8136712
H    -5.0263804   -1.0082727    1.0024760
C    -3.9381552    0.6617804    0.2400876
H    -4.8252424    1.2338890   -0.0111295
C    -2.6768410    1.2433246    0.0057578
C    -1.4974121    0.5051527    0.2848253
C    -1.6508332   -0.7338728    0.9404026
H    -0.7713646   -1.2730967    1.2633753
C    -2.8898548   -1.2624035    1.1994307
H    -2.9683706   -2.2124563    1.7152676
C    -2.5773185    2.5963696   -0.4192930
H    -3.4870728    3.1412239   -0.6474055
C    -1.3741895    3.2147896   -0.4364030
H    -1.2997315    4.2742019   -0.6578144
C    -0.1719488    2.4994090   -0.1734588
C    -0.2043917    1.1018437    0.0192689
C     1.0513491    3.2042560   -0.0676222
H     1.0427344    4.2819499   -0.1896997
C     2.1942091    2.5487446    0.2579577
H     3.1168527    3.0912848    0.4334727
C     2.2216473    1.1336562    0.2934990
C     1.0486931    0.3945528    0.0302412
C     3.4483363    0.4614633    0.5573939
H     4.3095794    1.0606054    0.8334846
C     3.5427346   -0.8855926    0.4749463
H     4.4731467   -1.3939704    0.7038822
C     2.4490052   -1.6474447   -0.0196319
C     1.2150704   -1.0057258   -0.3013573
C     0.2531113   -1.7434440   -1.0216591
H    -0.6541356   -1.2535051   -1.3462847
C     0.4494193   -3.0628597   -1.3413779
H    -0.3083162   -3.5944309   -1.9054060
C     1.6251726   -3.7207967   -0.9552541
H     1.7670048   -4.7687404   -1.1927019
C     2.6109872   -3.0144177   -0.3183050
H     3.5525612   -3.4902813   -0.0646367
Bq         2.1723590577    -0.1591991060     0.1473415669
Bq         2.1705135325    -0.1097077589     0.1542118367
Bq         2.1686680072    -0.0602164119     0.1610821064
Bq         2.1668224819    -0.0107250649     0.1679523762
Bq         2.1649769567     0.0387662821     0.1748226460
Bq         2.1631314314     0.0882576291     0.1816929158
Bq         2.1612859061     0.1377489761     0.1885631856
Bq         2.1594403809     0.1872403232     0.1954334553
Bq         2.1575948556     0.2367316702     0.2023037251
Bq         2.1557493303     0.2862230172     0.2091739949
Bq         2.1539038051     0.3357143642     0.2160442647
Bq         2.1520582798     0.3852057112     0.2229145344
Bq         2.1502127545     0.4346970583     0.2297848042
Bq         2.1483672292     0.4841884053     0.2366550740
Bq         2.1465217040     0.5336797523     0.2435253438
Bq         2.1446761787     0.5831710993     0.2503956136
Bq         2.1428306534     0.6326624463     0.2572658833
Bq         2.1409851282     0.6821537933     0.2641361531
Bq         2.1391396029     0.7316451404     0.2710064229
Bq         2.1372940776     0.7811364874     0.2778766927
Bq         2.1354485524     0.8306278344     0.2847469625
Bq         2.1336030271     0.8801191814     0.2916172322
Bq         2.1317575018     0.9296105284     0.2984875020
Bq         2.1299119766     0.9791018754     0.3053577718
Bq         2.1280664513     1.0285932225     0.3122280416
Bq         2.1262209260     1.0780845695     0.3190983114
Bq         2.1243754008     1.1275759165     0.3259685811
Bq         2.1225298755     1.1770672635     0.3328388509
Bq         2.1206843502     1.2265586105     0.3397091207
Bq         2.1188388250     1.2760499576     0.3465793905
Bq         2.1169932997     1.3255413046     0.3534496603
Bq         2.1151477744     1.3750326516     0.3603199300
Bq         2.1133022492     1.4245239986     0.3671901998
Bq         2.1114567239     1.4740153456     0.3740604696
Bq         2.1096111986     1.5235066926     0.3809307394
Bq         2.1077656734     1.5729980397     0.3878010092
Bq         2.1059201481     1.6224893867     0.3946712789
Bq         2.1040746228     1.6719807337     0.4015415487
Bq         2.1022290976     1.7214720807     0.4084118185
Bq         2.1003835723     1.7709634277     0.4152820883
Bq         2.0985380470     1.8204547748     0.4221523581
Bq         2.0966925218     1.8699461218     0.4290226278
Bq         2.0948469965     1.9194374688     0.4358928976
Bq         2.0930014712     1.9689288158     0.4427631674
Bq         2.0911559459     2.0184201628     0.4496334372
Bq         2.0893104207     2.0679115098     0.4565037070
Bq         2.0874648954     2.1174028569     0.4633739767
Bq         2.0856193701     2.1668942039     0.4702442465
Bq         2.0837738449     2.2163855509     0.4771145163
Bq         2.3166144967    -2.7327491509    -0.1969410708
Bq         2.3147689714    -2.6832578039    -0.1900708010
Bq         2.3129234461    -2.6337664569    -0.1832005312
Bq         2.3110779209    -2.5842751098    -0.1763302614
Bq         2.3092323956    -2.5347837628    -0.1694599916
Bq         2.3073868703    -2.4852924158    -0.1625897219
Bq         2.3055413451    -2.4358010688    -0.1557194521
Bq         2.3036958198    -2.3863097218    -0.1488491823
Bq         2.3018502945    -2.3368183748    -0.1419789125
Bq         2.3000047693    -2.2873270277    -0.1351086427
Bq         2.2981592440    -2.2378356807    -0.1282383730
Bq         2.2963137187    -2.1883443337    -0.1213681032
Bq         2.2944681935    -2.1388529867    -0.1144978334
Bq         2.2926226682    -2.0893616397    -0.1076275636
Bq         2.2907771429    -2.0398702926    -0.1007572938
Bq         2.2889316177    -1.9903789456    -0.0938870241
Bq         2.2870860924    -1.9408875986    -0.0870167543
Bq         2.2852405671    -1.8913962516    -0.0801464845
Bq         2.2833950419    -1.8419049046    -0.0732762147
Bq         2.2815495166    -1.7924135576    -0.0664059450
Bq         2.2797039913    -1.7429222105    -0.0595356752
Bq         2.2778584660    -1.6934308635    -0.0526654054
Bq         2.2760129408    -1.6439395165    -0.0457951356
Bq         2.2741674155    -1.5944481695    -0.0389248658
Bq         2.2723218902    -1.5449568225    -0.0320545961
Bq         2.2704763650    -1.4954654754    -0.0251843263
Bq         2.2686308397    -1.4459741284    -0.0183140565
Bq         2.2667853144    -1.3964827814    -0.0114437867
Bq         2.2649397892    -1.3469914344    -0.0045735169
Bq         2.2630942639    -1.2975000874     0.0022967528
Bq         2.2612487386    -1.2480087404     0.0091670226
Bq         2.2594032134    -1.1985173933     0.0160372924
Bq         2.2575576881    -1.1490260463     0.0229075622
Bq         2.2557121628    -1.0995346993     0.0297778320
Bq         2.2538666376    -1.0500433523     0.0366481017
Bq         2.2520211123    -1.0005520053     0.0435183715
Bq         2.2501755870    -0.9510606583     0.0503886413
Bq         2.2483300618    -0.9015693112     0.0572589111
Bq         2.2464845365    -0.8520779642     0.0641291809
Bq         2.2446390112    -0.8025866172     0.0709994506
Bq         2.2427934860    -0.7530952702     0.0778697204
Bq         2.2409479607    -0.7036039232     0.0847399902
Bq         2.2391024354    -0.6541125761     0.0916102600
Bq         2.2372569102    -0.6046212291     0.0984805298
Bq         2.2354113849    -0.5551298821     0.1053507995
Bq         2.2335658596    -0.5056385351     0.1122210693
Bq         2.2317203344    -0.4561471881     0.1190913391
Bq         2.2298748091    -0.4066558411     0.1259616089
Bq         2.2280292838    -0.3571644940     0.1328318787
Bq         2.2261837586    -0.3076731470     0.1397021484
Bq         2.2243382333    -0.2581818000     0.1465724182
Bq         2.2224927080    -0.2086904530     0.1534426880
Bq         2.2206471828    -0.1591991060     0.1603129578
Bq         2.2188016575    -0.1097077589     0.1671832275
Bq         2.2169561322    -0.0602164119     0.1740534973
Bq         2.2151106069    -0.0107250649     0.1809237671
Bq         2.2132650817     0.0387662821     0.1877940369
Bq         2.2114195564     0.0882576291     0.1946643067
Bq         2.2095740311     0.1377489761     0.2015345764
Bq         2.2077285059     0.1872403232     0.2084048462
Bq         2.2058829806     0.2367316702     0.2152751160
Bq         2.2040374553     0.2862230172     0.2221453858
Bq         2.2021919301     0.3357143642     0.2290156556
Bq         2.2003464048     0.3852057112     0.2358859253
Bq         2.1985008795     0.4346970583     0.2427561951
Bq         2.1966553543     0.4841884053     0.2496264649
Bq         2.1948098290     0.5336797523     0.2564967347
Bq         2.1929643037     0.5831710993     0.2633670045
Bq         2.1911187785     0.6326624463     0.2702372742
Bq         2.1892732532     0.6821537933     0.2771075440
Bq         2.1874277279     0.7316451404     0.2839778138
Bq         2.1855822027     0.7811364874     0.2908480836
Bq         2.1837366774     0.8306278344     0.2977183534
Bq         2.1818911521     0.8801191814     0.3045886231
Bq         2.1800456269     0.9296105284     0.3114588929
Bq         2.1782001016     0.9791018754     0.3183291627
Bq         2.1763545763     1.0285932225     0.3251994325
Bq         2.1745090511     1.0780845695     0.3320697023
Bq         2.1726635258     1.1275759165     0.3389399720
Bq         2.1708180005     1.1770672635     0.3458102418
Bq         2.1689724753     1.2265586105     0.3526805116
Bq         2.1671269500     1.2760499576     0.3595507814
Bq         2.1652814247     1.3255413046     0.3664210512
Bq         2.1634358995     1.3750326516     0.3732913209
Bq         2.1615903742     1.4245239986     0.3801615907
Bq         2.1597448489     1.4740153456     0.3870318605
Bq         2.1578993236     1.5235066926     0.3939021303
Bq         2.1560537984     1.5729980397     0.4007724001
Bq         2.1542082731     1.6224893867     0.4076426698
Bq         2.1523627478     1.6719807337     0.4145129396
Bq         2.1505172226     1.7214720807     0.4213832094
Bq         2.1486716973     1.7709634277     0.4282534792
Bq         2.1468261720     1.8204547748     0.4351237489
Bq         2.1449806468     1.8699461218     0.4419940187
Bq         2.1431351215     1.9194374688     0.4488642885
Bq         2.1412895962     1.9689288158     0.4557345583
Bq         2.1394440710     2.0184201628     0.4626048281
Bq         2.1375985457     2.0679115098     0.4694750978
Bq         2.1357530204     2.1174028569     0.4763453676
Bq         2.1339074952     2.1668942039     0.4832156374
Bq         2.1320619699     2.2163855509     0.4900859072
Bq         2.3649026217    -2.7327491509    -0.1839696799
Bq         2.3630570964    -2.6832578039    -0.1770994101
Bq         2.3612115712    -2.6337664569    -0.1702291403
Bq         2.3593660459    -2.5842751098    -0.1633588705
Bq         2.3575205206    -2.5347837628    -0.1564886007
Bq         2.3556749954    -2.4852924158    -0.1496183310
Bq         2.3538294701    -2.4358010688    -0.1427480612
Bq         2.3519839448    -2.3863097218    -0.1358777914
Bq         2.3501384196    -2.3368183748    -0.1290075216
Bq         2.3482928943    -2.2873270277    -0.1221372519
Bq         2.3464473690    -2.2378356807    -0.1152669821
Bq         2.3446018437    -2.1883443337    -0.1083967123
Bq         2.3427563185    -2.1388529867    -0.1015264425
Bq         2.3409107932    -2.0893616397    -0.0946561727
Bq         2.3390652679    -2.0398702926    -0.0877859030
Bq         2.3372197427    -1.9903789456    -0.0809156332
Bq         2.3353742174    -1.9408875986    -0.0740453634
Bq         2.3335286921    -1.8913962516    -0.0671750936
Bq         2.3316831669    -1.8419049046    -0.0603048238
Bq         2.3298376416    -1.7924135576    -0.0534345541
Bq         2.3279921163    -1.7429222105    -0.0465642843
Bq         2.3261465911    -1.6934308635    -0.0396940145
Bq         2.3243010658    -1.6439395165    -0.0328237447
Bq         2.3224555405    -1.5944481695    -0.0259534749
Bq         2.3206100153    -1.5449568225    -0.0190832052
Bq         2.3187644900    -1.4954654754    -0.0122129354
Bq         2.3169189647    -1.4459741284    -0.0053426656
Bq         2.3150734395    -1.3964827814     0.0015276042
Bq         2.3132279142    -1.3469914344     0.0083978740
Bq         2.3113823889    -1.2975000874     0.0152681437
Bq         2.3095368637    -1.2480087404     0.0221384135
Bq         2.3076913384    -1.1985173933     0.0290086833
Bq         2.3058458131    -1.1490260463     0.0358789531
Bq         2.3040002879    -1.0995346993     0.0427492229
Bq         2.3021547626    -1.0500433523     0.0496194926
Bq         2.3003092373    -1.0005520053     0.0564897624
Bq         2.2984637121    -0.9510606583     0.0633600322
Bq         2.2966181868    -0.9015693112     0.0702303020
Bq         2.2947726615    -0.8520779642     0.0771005718
Bq         2.2929271363    -0.8025866172     0.0839708415
Bq         2.2910816110    -0.7530952702     0.0908411113
Bq         2.2892360857    -0.7036039232     0.0977113811
Bq         2.2873905605    -0.6541125761     0.1045816509
Bq         2.2855450352    -0.6046212291     0.1114519206
Bq         2.2836995099    -0.5551298821     0.1183221904
Bq         2.2818539846    -0.5056385351     0.1251924602
Bq         2.2800084594    -0.4561471881     0.1320627300
Bq         2.2781629341    -0.4066558411     0.1389329998
Bq         2.2763174088    -0.3571644940     0.1458032695
Bq         2.2744718836    -0.3076731470     0.1526735393

1
2
3
4
5
6
7
8
9
10
11
12
13
14
15
16
17
18
19
20
21
22
23
24
25
26
27
28
29
30
31
32
33
34
35
36
37
38
39
40
41
42
43
44
45
46
47
48
49
50
51
52
53
54
55
56
57
58
59
60
61
62
63
64
65
66
67
68
69
70
71
72
73
74
75
76
77
78
79
80
81
82
83
84
85
86
87
88
89
90
91
92
93
94
95
96
97
98
99
100
101
102
103
104
105
106
107
108
109
110
111
112
113
114
115
116
117
118
119
120
121
122
123
124
125
126
127
128
129
130
131
132
133
134
135
136
137
138
139
140
141
142
143
144
145
146
147
148
149
150
151
152
153
154
155
156
157
158
159
160
161
162
163
164
165
166
167
168
169
170
171
172
173
174
175
176
177
178
179
180
181
182
183
184
185
186
187
188
189
190
191
192
193
194
195
196
197
198
199
200
201
202
203
204
205
206
207
208
209
210
211
212
213
214
215
216
217
218
219
220
221
222
223
224
225
226
227
228
229
230
231
232
233
234
235
236

