%nproc=8
%mem=1000MB
# rb3lyp/6-311+g** NMR geom=connectivity

Title

0 1
C    -4.0500558   -0.5771862    0.8136712
H    -5.0263804   -1.0082727    1.0024760
C    -3.9381552    0.6617804    0.2400876
H    -4.8252424    1.2338890   -0.0111295
C    -2.6768410    1.2433246    0.0057578
C    -1.4974121    0.5051527    0.2848253
C    -1.6508332   -0.7338728    0.9404026
H    -0.7713646   -1.2730967    1.2633753
C    -2.8898548   -1.2624035    1.1994307
H    -2.9683706   -2.2124563    1.7152676
C    -2.5773185    2.5963696   -0.4192930
H    -3.4870728    3.1412239   -0.6474055
C    -1.3741895    3.2147896   -0.4364030
H    -1.2997315    4.2742019   -0.6578144
C    -0.1719488    2.4994090   -0.1734588
C    -0.2043917    1.1018437    0.0192689
C     1.0513491    3.2042560   -0.0676222
H     1.0427344    4.2819499   -0.1896997
C     2.1942091    2.5487446    0.2579577
H     3.1168527    3.0912848    0.4334727
C     2.2216473    1.1336562    0.2934990
C     1.0486931    0.3945528    0.0302412
C     3.4483363    0.4614633    0.5573939
H     4.3095794    1.0606054    0.8334846
C     3.5427346   -0.8855926    0.4749463
H     4.4731467   -1.3939704    0.7038822
C     2.4490052   -1.6474447   -0.0196319
C     1.2150704   -1.0057258   -0.3013573
C     0.2531113   -1.7434440   -1.0216591
H    -0.6541356   -1.2535051   -1.3462847
C     0.4494193   -3.0628597   -1.3413779
H    -0.3083162   -3.5944309   -1.9054060
C     1.6251726   -3.7207967   -0.9552541
H     1.7670048   -4.7687404   -1.1927019
C     2.6109872   -3.0144177   -0.3183050
H     3.5525612   -3.4902813   -0.0646367
Bq        -0.0085322779     2.8125358704    -0.1408163996
Bq        -0.0081762109     2.8624754781    -0.1432472020
Bq        -0.0078201440     2.9124150858    -0.1456780044
Bq        -0.0074640770     2.9623546935    -0.1481088067
Bq        -0.0071080100     3.0122943012    -0.1505396091
Bq        -0.0067519430     3.0622339089    -0.1529704115
Bq        -0.0063958761     3.1121735166    -0.1554012139
Bq        -0.0060398091     3.1621131243    -0.1578320163
Bq        -0.0056837421     3.2120527319    -0.1602628187
Bq        -0.0053276752     3.2619923396    -0.1626936210
Bq        -0.0049716082     3.3119319473    -0.1651244234
Bq        -0.0046155412     3.3618715550    -0.1675552258
Bq        -0.0042594743     3.4118111627    -0.1699860282
Bq        -0.0039034073     3.4617507704    -0.1724168306
Bq        -0.0035473403     3.5116903781    -0.1748476330
Bq        -0.0031912733     3.5616299858    -0.1772784353
Bq        -0.0028352064     3.6115695935    -0.1797092377
Bq        -0.0024791394     3.6615092011    -0.1821400401
Bq        -0.0021230724     3.7114488088    -0.1845708425
Bq        -0.0017670055     3.7613884165    -0.1870016449
Bq        -0.0014109385     3.8113280242    -0.1894324473
Bq        -0.0010548715     3.8612676319    -0.1918632496
Bq        -0.0006988045     3.9112072396    -0.1942940520
Bq        -0.0003427376     3.9611468473    -0.1967248544
Bq         0.0000133294     4.0110864550    -0.1991556568
Bq         0.0003693964     4.0610260627    -0.2015864592
Bq         0.0007254633     4.1109656703    -0.2040172616
Bq         0.0010815303     4.1609052780    -0.2064480639
Bq         0.0014375973     4.2108448857    -0.2088788663
Bq         0.0017936643     4.2607844934    -0.2113096687
Bq         0.0021497312     4.3107241011    -0.2137404711
Bq         0.0160150961    -0.6832366678     0.0365864967
Bq         0.0163711630    -0.6332970601     0.0341556943
Bq         0.0167272300    -0.5833574524     0.0317248919
Bq         0.0170832970    -0.5334178447     0.0292940895
Bq         0.0174393640    -0.4834782370     0.0268632872
Bq         0.0177954309    -0.4335386293     0.0244324848
Bq         0.0181514979    -0.3835990216     0.0220016824
Bq         0.0185075649    -0.3336594139     0.0195708800
Bq         0.0188636318    -0.2837198063     0.0171400776
Bq         0.0192196988    -0.2337801986     0.0147092752
Bq         0.0195757658    -0.1838405909     0.0122784729
Bq         0.0199318328    -0.1339009832     0.0098476705
Bq         0.0202878997    -0.0839613755     0.0074168681
Bq         0.0206439667    -0.0340217678     0.0049860657
Bq         0.0210000337     0.0159178399     0.0025552633
Bq         0.0213561006     0.0658574476     0.0001244609
Bq         0.0217121676     0.1157970553    -0.0023063414
Bq         0.0220682346     0.1657366629    -0.0047371438
Bq         0.0224243016     0.2156762706    -0.0071679462
Bq         0.0227803685     0.2656158783    -0.0095987486
Bq         0.0231364355     0.3155554860    -0.0120295510
Bq         0.0234925025     0.3654950937    -0.0144603534
Bq         0.0238485694     0.4154347014    -0.0168911557
Bq         0.0242046364     0.4653743091    -0.0193219581
Bq         0.0245607034     0.5153139168    -0.0217527605
Bq         0.0249167703     0.5652535245    -0.0241835629
Bq         0.0252728373     0.6151931321    -0.0266143653
Bq         0.0256289043     0.6651327398    -0.0290451677
Bq         0.0259849713     0.7150723475    -0.0314759700
Bq         0.0263410382     0.7650119552    -0.0339067724
Bq         0.0266971052     0.8149515629    -0.0363375748
Bq         0.0270531722     0.8648911706    -0.0387683772
Bq         0.0274092391     0.9148307783    -0.0411991796
Bq         0.0277653061     0.9647703860    -0.0436299820
Bq         0.0281213731     1.0147099936    -0.0460607843
Bq         0.0284774401     1.0646496013    -0.0484915867
Bq         0.0288335070     1.1145892090    -0.0509223891
Bq         0.0291895740     1.1645288167    -0.0533531915
Bq         0.0295456410     1.2144684244    -0.0557839939
Bq         0.0299017079     1.2644080321    -0.0582147963
Bq         0.0302577749     1.3143476398    -0.0606455986
Bq         0.0306138419     1.3642872475    -0.0630764010
Bq         0.0309699089     1.4142268552    -0.0655072034
Bq         0.0313259758     1.4641664628    -0.0679380058
Bq         0.0316820428     1.5141060705    -0.0703688082
Bq         0.0320381098     1.5640456782    -0.0727996106
Bq         0.0323941767     1.6139852859    -0.0752304129
Bq         0.0327502437     1.6639248936    -0.0776612153
Bq         0.0331063107     1.7138645013    -0.0800920177
Bq         0.0334623776     1.7638041090    -0.0825228201
Bq         0.0338184446     1.8137437167    -0.0849536225
Bq         0.0341745116     1.8636833244    -0.0873844249
Bq         0.0345305786     1.9136229320    -0.0898152272
Bq         0.0348866455     1.9635625397    -0.0922460296
Bq         0.0352427125     2.0135021474    -0.0946768320
Bq         0.0355987795     2.0634417551    -0.0971076344
Bq         0.0359548464     2.1133813628    -0.0995384368
Bq         0.0363109134     2.1633209705    -0.1019692392
Bq         0.0366669804     2.2132605782    -0.1044000415
Bq         0.0370230474     2.2632001859    -0.1068308439
Bq         0.0373791143     2.3131397936    -0.1092616463
Bq         0.0377351813     2.3630794012    -0.1116924487
Bq         0.0380912483     2.4130190089    -0.1141232511
Bq         0.0384473152     2.4629586166    -0.1165540535
Bq         0.0388033822     2.5128982243    -0.1189848558
Bq         0.0391594492     2.5628378320    -0.1214156582
Bq         0.0395155162     2.6127774397    -0.1238464606
Bq         0.0398715831     2.6627170474    -0.1262772630
Bq         0.0402276501     2.7126566551    -0.1287080654
Bq         0.0405837171     2.7625962627    -0.1311388678
Bq         0.0409397840     2.8125358704    -0.1335696701
Bq         0.0412958510     2.8624754781    -0.1360004725
Bq         0.0416519180     2.9124150858    -0.1384312749
Bq         0.0420079849     2.9623546935    -0.1408620773
Bq         0.0423640519     3.0122943012    -0.1432928797
Bq         0.0427201189     3.0622339089    -0.1457236821
Bq         0.0430761859     3.1121735166    -0.1481544844
Bq         0.0434322528     3.1621131243    -0.1505852868
Bq         0.0437883198     3.2120527319    -0.1530160892
Bq         0.0441443868     3.2619923396    -0.1554468916
Bq         0.0445004537     3.3119319473    -0.1578776940
Bq         0.0448565207     3.3618715550    -0.1603084964
Bq         0.0452125877     3.4118111627    -0.1627392987
Bq         0.0455686547     3.4617507704    -0.1651701011
Bq         0.0459247216     3.5116903781    -0.1676009035
Bq         0.0462807886     3.5616299858    -0.1700317059
Bq         0.0466368556     3.6115695935    -0.1724625083
Bq         0.0469929225     3.6615092011    -0.1748933107
Bq         0.0473489895     3.7114488088    -0.1773241130
Bq         0.0477050565     3.7613884165    -0.1797549154
Bq         0.0480611235     3.8113280242    -0.1821857178
Bq         0.0484171904     3.8612676319    -0.1846165202
Bq         0.0487732574     3.9112072396    -0.1870473226
Bq         0.0491293244     3.9611468473    -0.1894781250
Bq         0.0494853913     4.0110864550    -0.1919089273
Bq         0.0498414583     4.0610260627    -0.1943397297
Bq         0.0501975253     4.1109656703    -0.1967705321
Bq         0.0505535922     4.1609052780    -0.1992013345
Bq         0.0509096592     4.2108448857    -0.2016321369
Bq         0.0512657262     4.2607844934    -0.2040629393
Bq         0.0516217932     4.3107241011    -0.2064937416
Bq         0.0654871580    -0.6832366678     0.0438332261
Bq         0.0658432250    -0.6332970601     0.0414024238
Bq         0.0661992920    -0.5833574524     0.0389716214
Bq         0.0665553589    -0.5334178447     0.0365408190
Bq         0.0669114259    -0.4834782370     0.0341100166
Bq         0.0672674929    -0.4335386293     0.0316792142
Bq         0.0676235598    -0.3835990216     0.0292484118
Bq         0.0679796268    -0.3336594139     0.0268176095
Bq         0.0683356938    -0.2837198063     0.0243868071
Bq         0.0686917607    -0.2337801986     0.0219560047
Bq         0.0690478277    -0.1838405909     0.0195252023
Bq         0.0694038947    -0.1339009832     0.0170943999
Bq         0.0697599617    -0.0839613755     0.0146635975
Bq         0.0701160286    -0.0340217678     0.0122327952
Bq         0.0704720956     0.0159178399     0.0098019928
Bq         0.0708281626     0.0658574476     0.0073711904
Bq         0.0711842295     0.1157970553     0.0049403880
Bq         0.0715402965     0.1657366629     0.0025095856
Bq         0.0718963635     0.2156762706     0.0000787832
Bq         0.0722524305     0.2656158783    -0.0023520191
Bq         0.0726084974     0.3155554860    -0.0047828215
Bq         0.0729645644     0.3654950937    -0.0072136239
Bq         0.0733206314     0.4154347014    -0.0096444263
Bq         0.0736766983     0.4653743091    -0.0120752287
Bq         0.0740327653     0.5153139168    -0.0145060311
Bq         0.0743888323     0.5652535245    -0.0169368334
Bq         0.0747448993     0.6151931321    -0.0193676358
Bq         0.0751009662     0.6651327398    -0.0217984382
Bq         0.0754570332     0.7150723475    -0.0242292406
Bq         0.0758131002     0.7650119552    -0.0266600430
Bq         0.0761691671     0.8149515629    -0.0290908454
Bq         0.0765252341     0.8648911706    -0.0315216477
Bq         0.0768813011     0.9148307783    -0.0339524501
Bq         0.0772373680     0.9647703860    -0.0363832525
Bq         0.0775934350     1.0147099936    -0.0388140549
Bq         0.0779495020     1.0646496013    -0.0412448573
Bq         0.0783055690     1.1145892090    -0.0436756597
Bq         0.0786616359     1.1645288167    -0.0461064620
Bq         0.0790177029     1.2144684244    -0.0485372644
Bq         0.0793737699     1.2644080321    -0.0509680668
Bq         0.0797298368     1.3143476398    -0.0533988692
Bq         0.0800859038     1.3642872475    -0.0558296716
Bq         0.0804419708     1.4142268552    -0.0582604740
Bq         0.0807980378     1.4641664628    -0.0606912763
Bq         0.0811541047     1.5141060705    -0.0631220787
Bq         0.0815101717     1.5640456782    -0.0655528811
Bq         0.0818662387     1.6139852859    -0.0679836835
Bq         0.0822223056     1.6639248936    -0.0704144859
Bq         0.0825783726     1.7138645013    -0.0728452882
Bq         0.0829344396     1.7638041090    -0.0752760906
Bq         0.0832905066     1.8137437167    -0.0777068930
Bq         0.0836465735     1.8636833244    -0.0801376954
Bq         0.0840026405     1.9136229320    -0.0825684978
Bq         0.0843587075     1.9635625397    -0.0849993002
Bq         0.0847147744     2.0135021474    -0.0874301025
Bq         0.0850708414     2.0634417551    -0.0898609049
Bq         0.0854269084     2.1133813628    -0.0922917073
Bq         0.0857829753     2.1633209705    -0.0947225097
Bq         0.0861390423     2.2132605782    -0.0971533121
Bq         0.0864951093     2.2632001859    -0.0995841145
Bq         0.0868511763     2.3131397936    -0.1020149168
Bq         0.0872072432     2.3630794012    -0.1044457192
Bq         0.0875633102     2.4130190089    -0.1068765216
Bq         0.0879193772     2.4629586166    -0.1093073240
Bq         0.0882754441     2.5128982243    -0.1117381264
Bq         0.0886315111     2.5628378320    -0.1141689288
Bq         0.0889875781     2.6127774397    -0.1165997311
Bq         0.0893436451     2.6627170474    -0.1190305335

1
2
3
4
5
6
7
8
9
10
11
12
13
14
15
16
17
18
19
20
21
22
23
24
25
26
27
28
29
30
31
32
33
34
35
36
37
38
39
40
41
42
43
44
45
46
47
48
49
50
51
52
53
54
55
56
57
58
59
60
61
62
63
64
65
66
67
68
69
70
71
72
73
74
75
76
77
78
79
80
81
82
83
84
85
86
87
88
89
90
91
92
93
94
95
96
97
98
99
100
101
102
103
104
105
106
107
108
109
110
111
112
113
114
115
116
117
118
119
120
121
122
123
124
125
126
127
128
129
130
131
132
133
134
135
136
137
138
139
140
141
142
143
144
145
146
147
148
149
150
151
152
153
154
155
156
157
158
159
160
161
162
163
164
165
166
167
168
169
170
171
172
173
174
175
176
177
178
179
180
181
182
183
184
185
186
187
188
189
190
191
192
193
194
195
196
197
198
199
200
201
202
203
204
205
206
207
208
209
210
211
212
213
214
215
216
217
218
219
220
221
222
223
224
225
226
227
228
229
230
231
232
233
234
235
236

