%nproc=8
%mem=1000MB
# rb3lyp/6-311+g** NMR geom=connectivity

Title

0 1
C    -4.0500558   -0.5771862    0.8136712
H    -5.0263804   -1.0082727    1.0024760
C    -3.9381552    0.6617804    0.2400876
H    -4.8252424    1.2338890   -0.0111295
C    -2.6768410    1.2433246    0.0057578
C    -1.4974121    0.5051527    0.2848253
C    -1.6508332   -0.7338728    0.9404026
H    -0.7713646   -1.2730967    1.2633753
C    -2.8898548   -1.2624035    1.1994307
H    -2.9683706   -2.2124563    1.7152676
C    -2.5773185    2.5963696   -0.4192930
H    -3.4870728    3.1412239   -0.6474055
C    -1.3741895    3.2147896   -0.4364030
H    -1.2997315    4.2742019   -0.6578144
C    -0.1719488    2.4994090   -0.1734588
C    -0.2043917    1.1018437    0.0192689
C     1.0513491    3.2042560   -0.0676222
H     1.0427344    4.2819499   -0.1896997
C     2.1942091    2.5487446    0.2579577
H     3.1168527    3.0912848    0.4334727
C     2.2216473    1.1336562    0.2934990
C     1.0486931    0.3945528    0.0302412
C     3.4483363    0.4614633    0.5573939
H     4.3095794    1.0606054    0.8334846
C     3.5427346   -0.8855926    0.4749463
H     4.4731467   -1.3939704    0.7038822
C     2.4490052   -1.6474447   -0.0196319
C     1.2150704   -1.0057258   -0.3013573
C     0.2531113   -1.7434440   -1.0216591
H    -0.6541356   -1.2535051   -1.3462847
C     0.4494193   -3.0628597   -1.3413779
H    -0.3083162   -3.5944309   -1.9054060
C     1.6251726   -3.7207967   -0.9552541
H     1.7670048   -4.7687404   -1.1927019
C     2.6109872   -3.0144177   -0.3183050
H     3.5525612   -3.4902813   -0.0646367
Bq         3.4758339653    -1.4459741284     0.3059707159
Bq         3.4739884400    -1.3964827814     0.3128409856
Bq         3.4721429148    -1.3469914344     0.3197112554
Bq         3.4702973895    -1.2975000874     0.3265815252
Bq         3.4684518642    -1.2480087404     0.3334517950
Bq         3.4666063390    -1.1985173933     0.3403220648
Bq         3.4647608137    -1.1490260463     0.3471923345
Bq         3.4629152884    -1.0995346993     0.3540626043
Bq         3.4610697632    -1.0500433523     0.3609328741
Bq         3.4592242379    -1.0005520053     0.3678031439
Bq         3.4573787126    -0.9510606583     0.3746734137
Bq         3.4555331873    -0.9015693112     0.3815436834
Bq         3.4536876621    -0.8520779642     0.3884139532
Bq         3.4518421368    -0.8025866172     0.3952842230
Bq         3.4499966115    -0.7530952702     0.4021544928
Bq         3.4481510863    -0.7036039232     0.4090247626
Bq         3.4463055610    -0.6541125761     0.4158950323
Bq         3.4444600357    -0.6046212291     0.4227653021
Bq         3.4426145105    -0.5551298821     0.4296355719
Bq         3.4407689852    -0.5056385351     0.4365058417
Bq         3.4389234599    -0.4561471881     0.4433761115
Bq         3.4370779347    -0.4066558411     0.4502463812
Bq         3.4352324094    -0.3571644940     0.4571166510
Bq         3.4333868841    -0.3076731470     0.4639869208
Bq         3.4315413589    -0.2581818000     0.4708571906
Bq         3.4296958336    -0.2086904530     0.4777274604
Bq         3.4278503083    -0.1591991060     0.4845977301
Bq         3.4260047831    -0.1097077589     0.4914679999
Bq         3.4241592578    -0.0602164119     0.4983382697
Bq         3.4223137325    -0.0107250649     0.5052085395
Bq         3.4204682073     0.0387662821     0.5120788092
Bq         3.4186226820     0.0882576291     0.5189490790
Bq         3.4167771567     0.1377489761     0.5258193488
Bq         3.4149316315     0.1872403232     0.5326896186
Bq         3.4130861062     0.2367316702     0.5395598884
Bq         3.4112405809     0.2862230172     0.5464301581
Bq         3.4093950557     0.3357143642     0.5533004279
Bq         3.4075495304     0.3852057112     0.5601706977
Bq         3.4057040051     0.4346970583     0.5670409675
Bq         3.4038584799     0.4841884053     0.5739112373
Bq         3.4020129546     0.5336797523     0.5807815070
Bq         3.4001674293     0.5831710993     0.5876517768
Bq         3.3983219040     0.6326624463     0.5945220466
Bq         3.3964763788     0.6821537933     0.6013923164
Bq         3.3946308535     0.7316451404     0.6082625862
Bq         3.3927853282     0.7811364874     0.6151328559
Bq         3.3909398030     0.8306278344     0.6220031257
Bq         3.3890942777     0.8801191814     0.6288733955
Bq         3.3872487524     0.9296105284     0.6357436653
Bq         3.3854032272     0.9791018754     0.6426139351
Bq         3.3835577019     1.0285932225     0.6494842048
Bq         3.3817121766     1.0780845695     0.6563544746
Bq         3.3798666514     1.1275759165     0.6632247444
Bq         3.3780211261     1.1770672635     0.6700950142
Bq         3.3761756008     1.2265586105     0.6769652840
Bq         3.3743300756     1.2760499576     0.6838355537
Bq         3.3724845503     1.3255413046     0.6907058235
Bq         3.3706390250     1.3750326516     0.6975760933
Bq         3.3687934998     1.4245239986     0.7044463631
Bq         3.3669479745     1.4740153456     0.7113166329
Bq         3.3651024492     1.5235066926     0.7181869026
Bq         3.3632569240     1.5729980397     0.7250571724
Bq         3.3614113987     1.6224893867     0.7319274422
Bq         3.3595658734     1.6719807337     0.7387977120
Bq         3.3577203482     1.7214720807     0.7456679818
Bq         3.3558748229     1.7709634277     0.7525382515
Bq         3.3540292976     1.8204547748     0.7594085213
Bq         3.3521837724     1.8699461218     0.7662787911
Bq         3.3503382471     1.9194374688     0.7731490609
Bq         3.3484927218     1.9689288158     0.7800193306
Bq         3.3466471966     2.0184201628     0.7868896004
Bq         3.3448016713     2.0679115098     0.7937598702
Bq         3.3429561460     2.1174028569     0.8006301400
Bq         3.3411106208     2.1668942039     0.8075004098
Bq         3.3392650955     2.2163855509     0.8143706795
Bq         3.5721057473    -2.7327491509     0.1403150925
Bq         3.5702602220    -2.6832578039     0.1471853623
Bq         3.5684146967    -2.6337664569     0.1540556321
Bq         3.5665691715    -2.5842751098     0.1609259018
Bq         3.5647236462    -2.5347837628     0.1677961716
Bq         3.5628781209    -2.4852924158     0.1746664414
Bq         3.5610325957    -2.4358010688     0.1815367112
Bq         3.5591870704    -2.3863097218     0.1884069810
Bq         3.5573415451    -2.3368183748     0.1952772507
Bq         3.5554960199    -2.2873270277     0.2021475205
Bq         3.5536504946    -2.2378356807     0.2090177903
Bq         3.5518049693    -2.1883443337     0.2158880601
Bq         3.5499594441    -2.1388529867     0.2227583298
Bq         3.5481139188    -2.0893616397     0.2296285996
Bq         3.5462683935    -2.0398702926     0.2364988694
Bq         3.5444228683    -1.9903789456     0.2433691392
Bq         3.5425773430    -1.9408875986     0.2502394090
Bq         3.5407318177    -1.8913962516     0.2571096787
Bq         3.5388862925    -1.8419049046     0.2639799485
Bq         3.5370407672    -1.7924135576     0.2708502183
Bq         3.5351952419    -1.7429222105     0.2777204881
Bq         3.5333497167    -1.6934308635     0.2845907579
Bq         3.5315041914    -1.6439395165     0.2914610276
Bq         3.5296586661    -1.5944481695     0.2983312974
Bq         3.5278131409    -1.5449568225     0.3052015672
Bq         3.5259676156    -1.4954654754     0.3120718370
Bq         3.5241220903    -1.4459741284     0.3189421068
Bq         3.5222765650    -1.3964827814     0.3258123765
Bq         3.5204310398    -1.3469914344     0.3326826463
Bq         3.5185855145    -1.2975000874     0.3395529161
Bq         3.5167399892    -1.2480087404     0.3464231859
Bq         3.5148944640    -1.1985173933     0.3532934557
Bq         3.5130489387    -1.1490260463     0.3601637254
Bq         3.5112034134    -1.0995346993     0.3670339952
Bq         3.5093578882    -1.0500433523     0.3739042650
Bq         3.5075123629    -1.0005520053     0.3807745348
Bq         3.5056668376    -0.9510606583     0.3876448046
Bq         3.5038213124    -0.9015693112     0.3945150743
Bq         3.5019757871    -0.8520779642     0.4013853441
Bq         3.5001302618    -0.8025866172     0.4082556139
Bq         3.4982847366    -0.7530952702     0.4151258837
Bq         3.4964392113    -0.7036039232     0.4219961535
Bq         3.4945936860    -0.6541125761     0.4288664232
Bq         3.4927481608    -0.6046212291     0.4357366930
Bq         3.4909026355    -0.5551298821     0.4426069628
Bq         3.4890571102    -0.5056385351     0.4494772326
Bq         3.4872115850    -0.4561471881     0.4563475024
Bq         3.4853660597    -0.4066558411     0.4632177721
Bq         3.4835205344    -0.3571644940     0.4700880419
Bq         3.4816750092    -0.3076731470     0.4769583117
Bq         3.4798294839    -0.2581818000     0.4838285815
Bq         3.4779839586    -0.2086904530     0.4906988512
Bq         3.4761384334    -0.1591991060     0.4975691210
Bq         3.4742929081    -0.1097077589     0.5044393908
Bq         3.4724473828    -0.0602164119     0.5113096606
Bq         3.4706018576    -0.0107250649     0.5181799304
Bq         3.4687563323     0.0387662821     0.5250502001
Bq         3.4669108070     0.0882576291     0.5319204699
Bq         3.4650652818     0.1377489761     0.5387907397
Bq         3.4632197565     0.1872403232     0.5456610095
Bq         3.4613742312     0.2367316702     0.5525312793
Bq         3.4595287059     0.2862230172     0.5594015490
Bq         3.4576831807     0.3357143642     0.5662718188
Bq         3.4558376554     0.3852057112     0.5731420886
Bq         3.4539921301     0.4346970583     0.5800123584
Bq         3.4521466049     0.4841884053     0.5868826282
Bq         3.4503010796     0.5336797523     0.5937528979
Bq         3.4484555543     0.5831710993     0.6006231677
Bq         3.4466100291     0.6326624463     0.6074934375
Bq         3.4447645038     0.6821537933     0.6143637073
Bq         3.4429189785     0.7316451404     0.6212339771
Bq         3.4410734533     0.7811364874     0.6281042468
Bq         3.4392279280     0.8306278344     0.6349745166
Bq         3.4373824027     0.8801191814     0.6418447864
Bq         3.4355368775     0.9296105284     0.6487150562
Bq         3.4336913522     0.9791018754     0.6555853260
Bq         3.4318458269     1.0285932225     0.6624555957
Bq         3.4300003017     1.0780845695     0.6693258655
Bq         3.4281547764     1.1275759165     0.6761961353
Bq         3.4263092511     1.1770672635     0.6830664051
Bq         3.4244637259     1.2265586105     0.6899366749
Bq         3.4226182006     1.2760499576     0.6968069446
Bq         3.4207726753     1.3255413046     0.7036772144
Bq         3.4189271501     1.3750326516     0.7105474842
Bq         3.4170816248     1.4245239986     0.7174177540
Bq         3.4152360995     1.4740153456     0.7242880237
Bq         3.4133905743     1.5235066926     0.7311582935
Bq         3.4115450490     1.5729980397     0.7380285633
Bq         3.4096995237     1.6224893867     0.7448988331
Bq         3.4078539985     1.6719807337     0.7517691029
Bq         3.4060084732     1.7214720807     0.7586393726
Bq         3.4041629479     1.7709634277     0.7655096424
Bq         3.4023174226     1.8204547748     0.7723799122
Bq         3.4004718974     1.8699461218     0.7792501820
Bq         3.3986263721     1.9194374688     0.7861204518
Bq         3.3967808468     1.9689288158     0.7929907215
Bq         3.3949353216     2.0184201628     0.7998609913
Bq         3.3930897963     2.0679115098     0.8067312611
Bq         3.3912442710     2.1174028569     0.8136015309
Bq         3.3893987458     2.1668942039     0.8204718007
Bq         3.3875532205     2.2163855509     0.8273420704
Bq         3.6203938723    -2.7327491509     0.1532864834
Bq         3.6185483470    -2.6832578039     0.1601567532
Bq         3.6167028218    -2.6337664569     0.1670270229
Bq         3.6148572965    -2.5842751098     0.1738972927
Bq         3.6130117712    -2.5347837628     0.1807675625
Bq         3.6111662460    -2.4852924158     0.1876378323
Bq         3.6093207207    -2.4358010688     0.1945081021
Bq         3.6074751954    -2.3863097218     0.2013783718
Bq         3.6056296702    -2.3368183748     0.2082486416
Bq         3.6037841449    -2.2873270277     0.2151189114
Bq         3.6019386196    -2.2378356807     0.2219891812
Bq         3.6000930944    -2.1883443337     0.2288594510
Bq         3.5982475691    -2.1388529867     0.2357297207
Bq         3.5964020438    -2.0893616397     0.2425999905
Bq         3.5945565186    -2.0398702926     0.2494702603
Bq         3.5927109933    -1.9903789456     0.2563405301
Bq         3.5908654680    -1.9408875986     0.2632107999
Bq         3.5890199427    -1.8913962516     0.2700810696
Bq         3.5871744175    -1.8419049046     0.2769513394
Bq         3.5853288922    -1.7924135576     0.2838216092
Bq         3.5834833669    -1.7429222105     0.2906918790
Bq         3.5816378417    -1.6934308635     0.2975621488
Bq         3.5797923164    -1.6439395165     0.3044324185
Bq         3.5779467911    -1.5944481695     0.3113026883

1
2
3
4
5
6
7
8
9
10
11
12
13
14
15
16
17
18
19
20
21
22
23
24
25
26
27
28
29
30
31
32
33
34
35
36
37
38
39
40
41
42
43
44
45
46
47
48
49
50
51
52
53
54
55
56
57
58
59
60
61
62
63
64
65
66
67
68
69
70
71
72
73
74
75
76
77
78
79
80
81
82
83
84
85
86
87
88
89
90
91
92
93
94
95
96
97
98
99
100
101
102
103
104
105
106
107
108
109
110
111
112
113
114
115
116
117
118
119
120
121
122
123
124
125
126
127
128
129
130
131
132
133
134
135
136
137
138
139
140
141
142
143
144
145
146
147
148
149
150
151
152
153
154
155
156
157
158
159
160
161
162
163
164
165
166
167
168
169
170
171
172
173
174
175
176
177
178
179
180
181
182
183
184
185
186
187
188
189
190
191
192
193
194
195
196
197
198
199
200
201
202
203
204
205
206
207
208
209
210
211
212
213
214
215
216
217
218
219
220
221
222
223
224
225
226
227
228
229
230
231
232
233
234
235
236

