%nproc=8
%mem=1000MB
# rb3lyp/6-311+g** NMR geom=connectivity

Title

0 1
C    -4.0500558   -0.5771862    0.8136712
H    -5.0263804   -1.0082727    1.0024760
C    -3.9381552    0.6617804    0.2400876
H    -4.8252424    1.2338890   -0.0111295
C    -2.6768410    1.2433246    0.0057578
C    -1.4974121    0.5051527    0.2848253
C    -1.6508332   -0.7338728    0.9404026
H    -0.7713646   -1.2730967    1.2633753
C    -2.8898548   -1.2624035    1.1994307
H    -2.9683706   -2.2124563    1.7152676
C    -2.5773185    2.5963696   -0.4192930
H    -3.4870728    3.1412239   -0.6474055
C    -1.3741895    3.2147896   -0.4364030
H    -1.2997315    4.2742019   -0.6578144
C    -0.1719488    2.4994090   -0.1734588
C    -0.2043917    1.1018437    0.0192689
C     1.0513491    3.2042560   -0.0676222
H     1.0427344    4.2819499   -0.1896997
C     2.1942091    2.5487446    0.2579577
H     3.1168527    3.0912848    0.4334727
C     2.2216473    1.1336562    0.2934990
C     1.0486931    0.3945528    0.0302412
C     3.4483363    0.4614633    0.5573939
H     4.3095794    1.0606054    0.8334846
C     3.5427346   -0.8855926    0.4749463
H     4.4731467   -1.3939704    0.7038822
C     2.4490052   -1.6474447   -0.0196319
C     1.2150704   -1.0057258   -0.3013573
C     0.2531113   -1.7434440   -1.0216591
H    -0.6541356   -1.2535051   -1.3462847
C     0.4494193   -3.0628597   -1.3413779
H    -0.3083162   -3.5944309   -1.9054060
C     1.6251726   -3.7207967   -0.9552541
H     1.7670048   -4.7687404   -1.1927019
C     2.6109872   -3.0144177   -0.3183050
H     3.5525612   -3.4902813   -0.0646367
Bq        -4.8304241984     1.7738270534    -0.2970103848
Bq        -4.8303387322     1.8188527497    -0.3187515753
Bq        -4.8302532661     1.8638784461    -0.3404927658
Bq        -4.8301678000     1.9089041424    -0.3622339563
Bq        -4.8300823338     1.9539298388    -0.3839751469
Bq        -4.8299968677     1.9989555351    -0.4057163374
Bq        -4.8299114016     2.0439812314    -0.4274575279
Bq        -4.8298259354     2.0890069278    -0.4491987184
Bq        -4.8297404693     2.1340326241    -0.4709399089
Bq        -4.8296550031     2.1790583204    -0.4926810994
Bq        -4.8295695370     2.2240840168    -0.5144222900
Bq        -4.7881165371    -2.2784856168     1.6598933136
Bq        -4.7880310709    -2.2334599204     1.6381521231
Bq        -4.7879456048    -2.1884342241     1.6164109326
Bq        -4.7878601387    -2.1434085278     1.5946697421
Bq        -4.7877746725    -2.0983828314     1.5729285516
Bq        -4.7876892064    -2.0533571351     1.5511873611
Bq        -4.7876037402    -2.0083314388     1.5294461705
Bq        -4.7875182741    -1.9633057424     1.5077049800
Bq        -4.7874328080    -1.9182800461     1.4859637895
Bq        -4.7873473418    -1.8732543497     1.4642225990
Bq        -4.7872618757    -1.8282286534     1.4424814085
Bq        -4.7871764096    -1.7832029571     1.4207402180
Bq        -4.7870909434    -1.7381772607     1.3989990274
Bq        -4.7870054773    -1.6931515644     1.3772578369
Bq        -4.7869200111    -1.6481258681     1.3555166464
Bq        -4.7868345450    -1.6031001717     1.3337754559
Bq        -4.7867490789    -1.5580744754     1.3120342654
Bq        -4.7866636127    -1.5130487791     1.2902930749
Bq        -4.7865781466    -1.4680230827     1.2685518843
Bq        -4.7864926805    -1.4229973864     1.2468106938
Bq        -4.7864072143    -1.3779716901     1.2250695033
Bq        -4.7863217482    -1.3329459937     1.2033283128
Bq        -4.7862362820    -1.2879202974     1.1815871223
Bq        -4.7861508159    -1.2428946011     1.1598459318
Bq        -4.7860653498    -1.1978689047     1.1381047412
Bq        -4.7859798836    -1.1528432084     1.1163635507
Bq        -4.7858944175    -1.1078175120     1.0946223602
Bq        -4.7858089514    -1.0627918157     1.0728811697
Bq        -4.7857234852    -1.0177661194     1.0511399792
Bq        -4.7856380191    -0.9727404230     1.0293987887
Bq        -4.7855525529    -0.9277147267     1.0076575981
Bq        -4.7854670868    -0.8826890304     0.9859164076
Bq        -4.7853816207    -0.8376633340     0.9641752171
Bq        -4.7852961545    -0.7926376377     0.9424340266
Bq        -4.7852106884    -0.7476119414     0.9206928361
Bq        -4.7851252223    -0.7025862450     0.8989516456
Bq        -4.7850397561    -0.6575605487     0.8772104550
Bq        -4.7849542900    -0.6125348524     0.8554692645
Bq        -4.7848688239    -0.5675091560     0.8337280740
Bq        -4.7847833577    -0.5224834597     0.8119868835
Bq        -4.7846978916    -0.4774577634     0.7902456930
Bq        -4.7846124254    -0.4324320670     0.7685045025
Bq        -4.7845269593    -0.3874063707     0.7467633120
Bq        -4.7844414932    -0.3423806743     0.7250221214
Bq        -4.7843560270    -0.2973549780     0.7032809309
Bq        -4.7842705609    -0.2523292817     0.6815397404
Bq        -4.7841850948    -0.2073035853     0.6597985499
Bq        -4.7840996286    -0.1622778890     0.6380573594
Bq        -4.7840141625    -0.1172521927     0.6163161689
Bq        -4.7839286963    -0.0722264963     0.5945749783
Bq        -4.7838432302    -0.0272008000     0.5728337878
Bq        -4.7837577641     0.0178248963     0.5510925973
Bq        -4.7836722979     0.0628505927     0.5293514068
Bq        -4.7835868318     0.1078762890     0.5076102163
Bq        -4.7835013657     0.1529019853     0.4858690258
Bq        -4.7834158995     0.1979276817     0.4641278352
Bq        -4.7833304334     0.2429533780     0.4423866447
Bq        -4.7832449672     0.2879790743     0.4206454542
Bq        -4.7831595011     0.3330047707     0.3989042637
Bq        -4.7830740350     0.3780304670     0.3771630732
Bq        -4.7829885688     0.4230561634     0.3554218827
Bq        -4.7829031027     0.4680818597     0.3336806921
Bq        -4.7828176366     0.5131075560     0.3119395016
Bq        -4.7827321704     0.5581332524     0.2901983111
Bq        -4.7826467043     0.6031589487     0.2684571206
Bq        -4.7825612381     0.6481846450     0.2467159301
Bq        -4.7824757720     0.6932103414     0.2249747396
Bq        -4.7823903059     0.7382360377     0.2032335490
Bq        -4.7823048397     0.7832617340     0.1814923585
Bq        -4.7822193736     0.8282874304     0.1597511680
Bq        -4.7821339075     0.8733131267     0.1380099775
Bq        -4.7820484413     0.9183388230     0.1162687870
Bq        -4.7819629752     0.9633645194     0.0945275965
Bq        -4.7818775090     1.0083902157     0.0727864059
Bq        -4.7817920429     1.0534159120     0.0510452154
Bq        -4.7817065768     1.0984416084     0.0293040249
Bq        -4.7816211106     1.1434673047     0.0075628344
Bq        -4.7815356445     1.1884930011    -0.0141783561
Bq        -4.7814501784     1.2335186974    -0.0359195466
Bq        -4.7813647122     1.2785443937    -0.0576607371
Bq        -4.7812792461     1.3235700901    -0.0794019277
Bq        -4.7811937799     1.3685957864    -0.1011431182
Bq        -4.7811083138     1.4136214827    -0.1228843087
Bq        -4.7810228477     1.4586471791    -0.1446254992
Bq        -4.7809373815     1.5036728754    -0.1663666897
Bq        -4.7808519154     1.5486985717    -0.1881078802
Bq        -4.7807664493     1.5937242681    -0.2098490708
Bq        -4.7806809831     1.6387499644    -0.2315902613
Bq        -4.7805955170     1.6837756607    -0.2533314518
Bq        -4.7805100508     1.7288013571    -0.2750726423
Bq        -4.7804245847     1.7738270534    -0.2968138328
Bq        -4.7803391186     1.8188527497    -0.3185550233
Bq        -4.7802536524     1.8638784461    -0.3402962139
Bq        -4.7801681863     1.9089041424    -0.3620374044
Bq        -4.7800827202     1.9539298388    -0.3837785949
Bq        -4.7799972540     1.9989555351    -0.4055197854
Bq        -4.7799117879     2.0439812314    -0.4272609759
Bq        -4.7798263217     2.0890069278    -0.4490021664
Bq        -4.7797408556     2.1340326241    -0.4707433570
Bq        -4.7796553895     2.1790583204    -0.4924845475
Bq        -4.7795699233     2.2240840168    -0.5142257380
Bq        -4.7381169234    -2.2784856168     1.6600898656
Bq        -4.7380314573    -2.2334599204     1.6383486751
Bq        -4.7379459911    -2.1884342241     1.6166074846
Bq        -4.7378605250    -2.1434085278     1.5948662941
Bq        -4.7377750588    -2.0983828314     1.5731251035
Bq        -4.7376895927    -2.0533571351     1.5513839130
Bq        -4.7376041266    -2.0083314388     1.5296427225
Bq        -4.7375186604    -1.9633057424     1.5079015320
Bq        -4.7374331943    -1.9182800461     1.4861603415
Bq        -4.7373477282    -1.8732543497     1.4644191510
Bq        -4.7372622620    -1.8282286534     1.4426779604
Bq        -4.7371767959    -1.7832029571     1.4209367699
Bq        -4.7370913298    -1.7381772607     1.3991955794
Bq        -4.7370058636    -1.6931515644     1.3774543889
Bq        -4.7369203975    -1.6481258681     1.3557131984
Bq        -4.7368349313    -1.6031001717     1.3339720079
Bq        -4.7367494652    -1.5580744754     1.3122308173
Bq        -4.7366639991    -1.5130487791     1.2904896268
Bq        -4.7365785329    -1.4680230827     1.2687484363
Bq        -4.7364930668    -1.4229973864     1.2470072458
Bq        -4.7364076007    -1.3779716901     1.2252660553
Bq        -4.7363221345    -1.3329459937     1.2035248648
Bq        -4.7362366684    -1.2879202974     1.1817836742
Bq        -4.7361512022    -1.2428946011     1.1600424837
Bq        -4.7360657361    -1.1978689047     1.1383012932
Bq        -4.7359802700    -1.1528432084     1.1165601027
Bq        -4.7358948038    -1.1078175120     1.0948189122
Bq        -4.7358093377    -1.0627918157     1.0730777217
Bq        -4.7357238716    -1.0177661194     1.0513365312
Bq        -4.7356384054    -0.9727404230     1.0295953406
Bq        -4.7355529393    -0.9277147267     1.0078541501
Bq        -4.7354674731    -0.8826890304     0.9861129596
Bq        -4.7353820070    -0.8376633340     0.9643717691
Bq        -4.7352965409    -0.7926376377     0.9426305786
Bq        -4.7352110747    -0.7476119414     0.9208893881
Bq        -4.7351256086    -0.7025862450     0.8991481975
Bq        -4.7350401425    -0.6575605487     0.8774070070
Bq        -4.7349546763    -0.6125348524     0.8556658165
Bq        -4.7348692102    -0.5675091560     0.8339246260
Bq        -4.7347837440    -0.5224834597     0.8121834355
Bq        -4.7346982779    -0.4774577634     0.7904422450
Bq        -4.7346128118    -0.4324320670     0.7687010544
Bq        -4.7345273456    -0.3874063707     0.7469598639
Bq        -4.7344418795    -0.3423806743     0.7252186734
Bq        -4.7343564134    -0.2973549780     0.7034774829
Bq        -4.7342709472    -0.2523292817     0.6817362924
Bq        -4.7341854811    -0.2073035853     0.6599951019
Bq        -4.7341000149    -0.1622778890     0.6382539113
Bq        -4.7340145488    -0.1172521927     0.6165127208
Bq        -4.7339290827    -0.0722264963     0.5947715303
Bq        -4.7338436165    -0.0272008000     0.5730303398
Bq        -4.7337581504     0.0178248963     0.5512891493
Bq        -4.7336726843     0.0628505927     0.5295479588
Bq        -4.7335872181     0.1078762890     0.5078067682
Bq        -4.7335017520     0.1529019853     0.4860655777
Bq        -4.7334162858     0.1979276817     0.4643243872
Bq        -4.7333308197     0.2429533780     0.4425831967
Bq        -4.7332453536     0.2879790743     0.4208420062
Bq        -4.7331598874     0.3330047707     0.3991008157
Bq        -4.7330744213     0.3780304670     0.3773596251
Bq        -4.7329889552     0.4230561634     0.3556184346
Bq        -4.7329034890     0.4680818597     0.3338772441
Bq        -4.7328180229     0.5131075560     0.3121360536
Bq        -4.7327325567     0.5581332524     0.2903948631
Bq        -4.7326470906     0.6031589487     0.2686536726
Bq        -4.7325616245     0.6481846450     0.2469124821
Bq        -4.7324761583     0.6932103414     0.2251712915
Bq        -4.7323906922     0.7382360377     0.2034301010
Bq        -4.7323052261     0.7832617340     0.1816889105
Bq        -4.7322197599     0.8282874304     0.1599477200
Bq        -4.7321342938     0.8733131267     0.1382065295
Bq        -4.7320488276     0.9183388230     0.1164653390
Bq        -4.7319633615     0.9633645194     0.0947241484
Bq        -4.7318778954     1.0083902157     0.0729829579
Bq        -4.7317924292     1.0534159120     0.0512417674
Bq        -4.7317069631     1.0984416084     0.0295005769
Bq        -4.7316214970     1.1434673047     0.0077593864
Bq        -4.7315360308     1.1884930011    -0.0139818041
Bq        -4.7314505647     1.2335186974    -0.0357229947
Bq        -4.7313650985     1.2785443937    -0.0574641852
Bq        -4.7312796324     1.3235700901    -0.0792053757
Bq        -4.7311941663     1.3685957864    -0.1009465662
Bq        -4.7311087001     1.4136214827    -0.1226877567
Bq        -4.7310232340     1.4586471791    -0.1444289472
Bq        -4.7309377679     1.5036728754    -0.1661701378
Bq        -4.7308523017     1.5486985717    -0.1879113283
Bq        -4.7307668356     1.5937242681    -0.2096525188
Bq        -4.7306813694     1.6387499644    -0.2313937093

1
2
3
4
5
6
7
8
9
10
11
12
13
14
15
16
17
18
19
20
21
22
23
24
25
26
27
28
29
30
31
32
33
34
35
36
37
38
39
40
41
42
43
44
45
46
47
48
49
50
51
52
53
54
55
56
57
58
59
60
61
62
63
64
65
66
67
68
69
70
71
72
73
74
75
76
77
78
79
80
81
82
83
84
85
86
87
88
89
90
91
92
93
94
95
96
97
98
99
100
101
102
103
104
105
106
107
108
109
110
111
112
113
114
115
116
117
118
119
120
121
122
123
124
125
126
127
128
129
130
131
132
133
134
135
136
137
138
139
140
141
142
143
144
145
146
147
148
149
150
151
152
153
154
155
156
157
158
159
160
161
162
163
164
165
166
167
168
169
170
171
172
173
174
175
176
177
178
179
180
181
182
183
184
185
186
187
188
189
190
191
192
193
194
195
196
197
198
199
200
201
202
203
204
205
206
207
208
209
210
211
212
213
214
215
216
217
218
219
220
221
222
223
224
225
226
227
228
229
230
231
232
233
234
235
236

