%nproc=8
%mem=1000MB
# rb3lyp/6-311+g** NMR geom=connectivity

Title

0 1
C    -4.0500558   -0.5771862    0.8136712
H    -5.0263804   -1.0082727    1.0024760
C    -3.9381552    0.6617804    0.2400876
H    -4.8252424    1.2338890   -0.0111295
C    -2.6768410    1.2433246    0.0057578
C    -1.4974121    0.5051527    0.2848253
C    -1.6508332   -0.7338728    0.9404026
H    -0.7713646   -1.2730967    1.2633753
C    -2.8898548   -1.2624035    1.1994307
H    -2.9683706   -2.2124563    1.7152676
C    -2.5773185    2.5963696   -0.4192930
H    -3.4870728    3.1412239   -0.6474055
C    -1.3741895    3.2147896   -0.4364030
H    -1.2997315    4.2742019   -0.6578144
C    -0.1719488    2.4994090   -0.1734588
C    -0.2043917    1.1018437    0.0192689
C     1.0513491    3.2042560   -0.0676222
H     1.0427344    4.2819499   -0.1896997
C     2.1942091    2.5487446    0.2579577
H     3.1168527    3.0912848    0.4334727
C     2.2216473    1.1336562    0.2934990
C     1.0486931    0.3945528    0.0302412
C     3.4483363    0.4614633    0.5573939
H     4.3095794    1.0606054    0.8334846
C     3.5427346   -0.8855926    0.4749463
H     4.4731467   -1.3939704    0.7038822
C     2.4490052   -1.6474447   -0.0196319
C     1.2150704   -1.0057258   -0.3013573
C     0.2531113   -1.7434440   -1.0216591
H    -0.6541356   -1.2535051   -1.3462847
C     0.4494193   -3.0628597   -1.3413779
H    -0.3083162   -3.5944309   -1.9054060
C     1.6251726   -3.7207967   -0.9552541
H     1.7670048   -4.7687404   -1.1927019
C     2.6109872   -3.0144177   -0.3183050
H     3.5525612   -3.4902813   -0.0646367
Bq        -0.7943881973     3.6115695935    -0.2956569090
Bq        -0.7940321304     3.6615092011    -0.2980877114
Bq        -0.7936760634     3.7114488088    -0.3005185138
Bq        -0.7933199964     3.7613884165    -0.3029493162
Bq        -0.7929639295     3.8113280242    -0.3053801186
Bq        -0.7926078625     3.8612676319    -0.3078109210
Bq        -0.7922517955     3.9112072396    -0.3102417233
Bq        -0.7918957285     3.9611468473    -0.3126725257
Bq        -0.7915396616     4.0110864550    -0.3151033281
Bq        -0.7911835946     4.0610260627    -0.3175341305
Bq        -0.7908275276     4.1109656703    -0.3199649329
Bq        -0.7904714607     4.1609052780    -0.3223957353
Bq        -0.7901153937     4.2108448857    -0.3248265376
Bq        -0.7897593267     4.2607844934    -0.3272573400
Bq        -0.7894032597     4.3107241011    -0.3296881424
Bq        -0.7755378949    -0.6832366678    -0.0793611746
Bq        -0.7751818279    -0.6332970601    -0.0817919770
Bq        -0.7748257610    -0.5833574524    -0.0842227794
Bq        -0.7744696940    -0.5334178447    -0.0866535818
Bq        -0.7741136270    -0.4834782370    -0.0890843842
Bq        -0.7737575600    -0.4335386293    -0.0915151865
Bq        -0.7734014931    -0.3835990216    -0.0939459889
Bq        -0.7730454261    -0.3336594139    -0.0963767913
Bq        -0.7726893591    -0.2837198063    -0.0988075937
Bq        -0.7723332922    -0.2337801986    -0.1012383961
Bq        -0.7719772252    -0.1838405909    -0.1036691985
Bq        -0.7716211582    -0.1339009832    -0.1061000008
Bq        -0.7712650912    -0.0839613755    -0.1085308032
Bq        -0.7709090243    -0.0340217678    -0.1109616056
Bq        -0.7705529573     0.0159178399    -0.1133924080
Bq        -0.7701968903     0.0658574476    -0.1158232104
Bq        -0.7698408234     0.1157970553    -0.1182540128
Bq        -0.7694847564     0.1657366629    -0.1206848151
Bq        -0.7691286894     0.2156762706    -0.1231156175
Bq        -0.7687726225     0.2656158783    -0.1255464199
Bq        -0.7684165555     0.3155554860    -0.1279772223
Bq        -0.7680604885     0.3654950937    -0.1304080247
Bq        -0.7677044215     0.4154347014    -0.1328388271
Bq        -0.7673483546     0.4653743091    -0.1352696294
Bq        -0.7669922876     0.5153139168    -0.1377004318
Bq        -0.7666362206     0.5652535245    -0.1401312342
Bq        -0.7662801537     0.6151931321    -0.1425620366
Bq        -0.7659240867     0.6651327398    -0.1449928390
Bq        -0.7655680197     0.7150723475    -0.1474236414
Bq        -0.7652119527     0.7650119552    -0.1498544437
Bq        -0.7648558858     0.8149515629    -0.1522852461
Bq        -0.7644998188     0.8648911706    -0.1547160485
Bq        -0.7641437518     0.9148307783    -0.1571468509
Bq        -0.7637876849     0.9647703860    -0.1595776533
Bq        -0.7634316179     1.0147099936    -0.1620084557
Bq        -0.7630755509     1.0646496013    -0.1644392580
Bq        -0.7627194839     1.1145892090    -0.1668700604
Bq        -0.7623634170     1.1645288167    -0.1693008628
Bq        -0.7620073500     1.2144684244    -0.1717316652
Bq        -0.7616512830     1.2644080321    -0.1741624676
Bq        -0.7612952161     1.3143476398    -0.1765932700
Bq        -0.7609391491     1.3642872475    -0.1790240723
Bq        -0.7605830821     1.4142268552    -0.1814548747
Bq        -0.7602270152     1.4641664628    -0.1838856771
Bq        -0.7598709482     1.5141060705    -0.1863164795
Bq        -0.7595148812     1.5640456782    -0.1887472819
Bq        -0.7591588142     1.6139852859    -0.1911780843
Bq        -0.7588027473     1.6639248936    -0.1936088866
Bq        -0.7584466803     1.7138645013    -0.1960396890
Bq        -0.7580906133     1.7638041090    -0.1984704914
Bq        -0.7577345464     1.8137437167    -0.2009012938
Bq        -0.7573784794     1.8636833244    -0.2033320962
Bq        -0.7570224124     1.9136229320    -0.2057628986
Bq        -0.7566663454     1.9635625397    -0.2081937009
Bq        -0.7563102785     2.0135021474    -0.2106245033
Bq        -0.7559542115     2.0634417551    -0.2130553057
Bq        -0.7555981445     2.1133813628    -0.2154861081
Bq        -0.7552420776     2.1633209705    -0.2179169105
Bq        -0.7548860106     2.2132605782    -0.2203477129
Bq        -0.7545299436     2.2632001859    -0.2227785152
Bq        -0.7541738766     2.3131397936    -0.2252093176
Bq        -0.7538178097     2.3630794012    -0.2276401200
Bq        -0.7534617427     2.4130190089    -0.2300709224
Bq        -0.7531056757     2.4629586166    -0.2325017248
Bq        -0.7527496088     2.5128982243    -0.2349325272
Bq        -0.7523935418     2.5628378320    -0.2373633295
Bq        -0.7520374748     2.6127774397    -0.2397941319
Bq        -0.7516814079     2.6627170474    -0.2422249343
Bq        -0.7513253409     2.7126566551    -0.2446557367
Bq        -0.7509692739     2.7625962627    -0.2470865391
Bq        -0.7506132069     2.8125358704    -0.2495173414
Bq        -0.7502571400     2.8624754781    -0.2519481438
Bq        -0.7499010730     2.9124150858    -0.2543789462
Bq        -0.7495450060     2.9623546935    -0.2568097486
Bq        -0.7491889391     3.0122943012    -0.2592405510
Bq        -0.7488328721     3.0622339089    -0.2616713534
Bq        -0.7484768051     3.1121735166    -0.2641021557
Bq        -0.7481207381     3.1621131243    -0.2665329581
Bq        -0.7477646712     3.2120527319    -0.2689637605
Bq        -0.7474086042     3.2619923396    -0.2713945629
Bq        -0.7470525372     3.3119319473    -0.2738253653
Bq        -0.7466964703     3.3618715550    -0.2762561677
Bq        -0.7463404033     3.4118111627    -0.2786869700
Bq        -0.7459843363     3.4617507704    -0.2811177724
Bq        -0.7456282693     3.5116903781    -0.2835485748
Bq        -0.7452722024     3.5616299858    -0.2859793772
Bq        -0.7449161354     3.6115695935    -0.2884101796
Bq        -0.7445600684     3.6615092011    -0.2908409820
Bq        -0.7442040015     3.7114488088    -0.2932717843
Bq        -0.7438479345     3.7613884165    -0.2957025867
Bq        -0.7434918675     3.8113280242    -0.2981333891
Bq        -0.7431358006     3.8612676319    -0.3005641915
Bq        -0.7427797336     3.9112072396    -0.3029949939
Bq        -0.7424236666     3.9611468473    -0.3054257963
Bq        -0.7420675996     4.0110864550    -0.3078565986
Bq        -0.7417115327     4.0610260627    -0.3102874010
Bq        -0.7413554657     4.1109656703    -0.3127182034
Bq        -0.7409993987     4.1609052780    -0.3151490058
Bq        -0.7406433318     4.2108448857    -0.3175798082
Bq        -0.7402872648     4.2607844934    -0.3200106106
Bq        -0.7399311978     4.3107241011    -0.3224414129
Bq        -0.7260658330    -0.6832366678    -0.0721144452
Bq        -0.7257097660    -0.6332970601    -0.0745452475
Bq        -0.7253536990    -0.5833574524    -0.0769760499
Bq        -0.7249976320    -0.5334178447    -0.0794068523
Bq        -0.7246415651    -0.4834782370    -0.0818376547
Bq        -0.7242854981    -0.4335386293    -0.0842684571
Bq        -0.7239294311    -0.3835990216    -0.0866992595
Bq        -0.7235733642    -0.3336594139    -0.0891300618
Bq        -0.7232172972    -0.2837198063    -0.0915608642
Bq        -0.7228612302    -0.2337801986    -0.0939916666
Bq        -0.7225051633    -0.1838405909    -0.0964224690
Bq        -0.7221490963    -0.1339009832    -0.0988532714
Bq        -0.7217930293    -0.0839613755    -0.1012840738
Bq        -0.7214369623    -0.0340217678    -0.1037148761
Bq        -0.7210808954     0.0159178399    -0.1061456785
Bq        -0.7207248284     0.0658574476    -0.1085764809
Bq        -0.7203687614     0.1157970553    -0.1110072833
Bq        -0.7200126945     0.1657366629    -0.1134380857
Bq        -0.7196566275     0.2156762706    -0.1158688881
Bq        -0.7193005605     0.2656158783    -0.1182996904
Bq        -0.7189444935     0.3155554860    -0.1207304928
Bq        -0.7185884266     0.3654950937    -0.1231612952
Bq        -0.7182323596     0.4154347014    -0.1255920976
Bq        -0.7178762926     0.4653743091    -0.1280229000
Bq        -0.7175202257     0.5153139168    -0.1304537024
Bq        -0.7171641587     0.5652535245    -0.1328845047
Bq        -0.7168080917     0.6151931321    -0.1353153071
Bq        -0.7164520247     0.6651327398    -0.1377461095
Bq        -0.7160959578     0.7150723475    -0.1401769119
Bq        -0.7157398908     0.7650119552    -0.1426077143
Bq        -0.7153838238     0.8149515629    -0.1450385167
Bq        -0.7150277569     0.8648911706    -0.1474693190
Bq        -0.7146716899     0.9148307783    -0.1499001214
Bq        -0.7143156229     0.9647703860    -0.1523309238
Bq        -0.7139595560     1.0147099936    -0.1547617262
Bq        -0.7136034890     1.0646496013    -0.1571925286
Bq        -0.7132474220     1.1145892090    -0.1596233310
Bq        -0.7128913550     1.1645288167    -0.1620541333
Bq        -0.7125352881     1.2144684244    -0.1644849357
Bq        -0.7121792211     1.2644080321    -0.1669157381
Bq        -0.7118231541     1.3143476398    -0.1693465405
Bq        -0.7114670872     1.3642872475    -0.1717773429
Bq        -0.7111110202     1.4142268552    -0.1742081453
Bq        -0.7107549532     1.4641664628    -0.1766389476
Bq        -0.7103988862     1.5141060705    -0.1790697500
Bq        -0.7100428193     1.5640456782    -0.1815005524
Bq        -0.7096867523     1.6139852859    -0.1839313548
Bq        -0.7093306853     1.6639248936    -0.1863621572
Bq        -0.7089746184     1.7138645013    -0.1887929596
Bq        -0.7086185514     1.7638041090    -0.1912237619
Bq        -0.7082624844     1.8137437167    -0.1936545643
Bq        -0.7079064174     1.8636833244    -0.1960853667
Bq        -0.7075503505     1.9136229320    -0.1985161691
Bq        -0.7071942835     1.9635625397    -0.2009469715
Bq        -0.7068382165     2.0135021474    -0.2033777739
Bq        -0.7064821496     2.0634417551    -0.2058085762
Bq        -0.7061260826     2.1133813628    -0.2082393786
Bq        -0.7057700156     2.1633209705    -0.2106701810
Bq        -0.7054139487     2.2132605782    -0.2131009834
Bq        -0.7050578817     2.2632001859    -0.2155317858
Bq        -0.7047018147     2.3131397936    -0.2179625882
Bq        -0.7043457477     2.3630794012    -0.2203933905
Bq        -0.7039896808     2.4130190089    -0.2228241929
Bq        -0.7036336138     2.4629586166    -0.2252549953
Bq        -0.7032775468     2.5128982243    -0.2276857977
Bq        -0.7029214799     2.5628378320    -0.2301166001
Bq        -0.7025654129     2.6127774397    -0.2325474025
Bq        -0.7022093459     2.6627170474    -0.2349782048
Bq        -0.7018532789     2.7126566551    -0.2374090072
Bq        -0.7014972120     2.7625962627    -0.2398398096
Bq        -0.7011411450     2.8125358704    -0.2422706120
Bq        -0.7007850780     2.8624754781    -0.2447014144
Bq        -0.7004290111     2.9124150858    -0.2471322168
Bq        -0.7000729441     2.9623546935    -0.2495630191
Bq        -0.6997168771     3.0122943012    -0.2519938215
Bq        -0.6993608101     3.0622339089    -0.2544246239
Bq        -0.6990047432     3.1121735166    -0.2568554263
Bq        -0.6986486762     3.1621131243    -0.2592862287
Bq        -0.6982926092     3.2120527319    -0.2617170311
Bq        -0.6979365423     3.2619923396    -0.2641478334
Bq        -0.6975804753     3.3119319473    -0.2665786358
Bq        -0.6972244083     3.3618715550    -0.2690094382
Bq        -0.6968683414     3.4118111627    -0.2714402406
Bq        -0.6965122744     3.4617507704    -0.2738710430

1
2
3
4
5
6
7
8
9
10
11
12
13
14
15
16
17
18
19
20
21
22
23
24
25
26
27
28
29
30
31
32
33
34
35
36
37
38
39
40
41
42
43
44
45
46
47
48
49
50
51
52
53
54
55
56
57
58
59
60
61
62
63
64
65
66
67
68
69
70
71
72
73
74
75
76
77
78
79
80
81
82
83
84
85
86
87
88
89
90
91
92
93
94
95
96
97
98
99
100
101
102
103
104
105
106
107
108
109
110
111
112
113
114
115
116
117
118
119
120
121
122
123
124
125
126
127
128
129
130
131
132
133
134
135
136
137
138
139
140
141
142
143
144
145
146
147
148
149
150
151
152
153
154
155
156
157
158
159
160
161
162
163
164
165
166
167
168
169
170
171
172
173
174
175
176
177
178
179
180
181
182
183
184
185
186
187
188
189
190
191
192
193
194
195
196
197
198
199
200
201
202
203
204
205
206
207
208
209
210
211
212
213
214
215
216
217
218
219
220
221
222
223
224
225
226
227
228
229
230
231
232
233
234
235
236

