%nproc=8
%mem=1000MB
# rb3lyp/6-311+g** NMR geom=connectivity

Title

0 1
C    -4.0500558   -0.5771862    0.8136712
H    -5.0263804   -1.0082727    1.0024760
C    -3.9381552    0.6617804    0.2400876
H    -4.8252424    1.2338890   -0.0111295
C    -2.6768410    1.2433246    0.0057578
C    -1.4974121    0.5051527    0.2848253
C    -1.6508332   -0.7338728    0.9404026
H    -0.7713646   -1.2730967    1.2633753
C    -2.8898548   -1.2624035    1.1994307
H    -2.9683706   -2.2124563    1.7152676
C    -2.5773185    2.5963696   -0.4192930
H    -3.4870728    3.1412239   -0.6474055
C    -1.3741895    3.2147896   -0.4364030
H    -1.2997315    4.2742019   -0.6578144
C    -0.1719488    2.4994090   -0.1734588
C    -0.2043917    1.1018437    0.0192689
C     1.0513491    3.2042560   -0.0676222
H     1.0427344    4.2819499   -0.1896997
C     2.1942091    2.5487446    0.2579577
H     3.1168527    3.0912848    0.4334727
C     2.2216473    1.1336562    0.2934990
C     1.0486931    0.3945528    0.0302412
C     3.4483363    0.4614633    0.5573939
H     4.3095794    1.0606054    0.8334846
C     3.5427346   -0.8855926    0.4749463
H     4.4731467   -1.3939704    0.7038822
C     2.4490052   -1.6474447   -0.0196319
C     1.2150704   -1.0057258   -0.3013573
C     0.2531113   -1.7434440   -1.0216591
H    -0.6541356   -1.2535051   -1.3462847
C     0.4494193   -3.0628597   -1.3413779
H    -0.3083162   -3.5944309   -1.9054060
C     1.6251726   -3.7207967   -0.9552541
H     1.7670048   -4.7687404   -1.1927019
C     2.6109872   -3.0144177   -0.3183050
H     3.5525612   -3.4902813   -0.0646367
Bq        -1.8355753463    -0.9277147267     1.0192541644
Bq        -1.8354898802    -0.8826890304     0.9975129739
Bq        -1.8354044140    -0.8376633340     0.9757717834
Bq        -1.8353189479    -0.7926376377     0.9540305929
Bq        -1.8352334818    -0.7476119414     0.9322894024
Bq        -1.8351480156    -0.7025862450     0.9105482119
Bq        -1.8350625495    -0.6575605487     0.8888070213
Bq        -1.8349770834    -0.6125348524     0.8670658308
Bq        -1.8348916172    -0.5675091560     0.8453246403
Bq        -1.8348061511    -0.5224834597     0.8235834498
Bq        -1.8347206849    -0.4774577634     0.8018422593
Bq        -1.8346352188    -0.4324320670     0.7801010688
Bq        -1.8345497527    -0.3874063707     0.7583598782
Bq        -1.8344642865    -0.3423806743     0.7366186877
Bq        -1.8343788204    -0.2973549780     0.7148774972
Bq        -1.8342933543    -0.2523292817     0.6931363067
Bq        -1.8342078881    -0.2073035853     0.6713951162
Bq        -1.8341224220    -0.1622778890     0.6496539257
Bq        -1.8340369558    -0.1172521927     0.6279127352
Bq        -1.8339514897    -0.0722264963     0.6061715446
Bq        -1.8338660236    -0.0272008000     0.5844303541
Bq        -1.8337805574     0.0178248963     0.5626891636
Bq        -1.8336950913     0.0628505927     0.5409479731
Bq        -1.8336096252     0.1078762890     0.5192067826
Bq        -1.8335241590     0.1529019853     0.4974655921
Bq        -1.8334386929     0.1979276817     0.4757244015
Bq        -1.8333532267     0.2429533780     0.4539832110
Bq        -1.8332677606     0.2879790743     0.4322420205
Bq        -1.8331822945     0.3330047707     0.4105008300
Bq        -1.8330968283     0.3780304670     0.3887596395
Bq        -1.8330113622     0.4230561634     0.3670184490
Bq        -1.8329258961     0.4680818597     0.3452772584
Bq        -1.8328404299     0.5131075560     0.3235360679
Bq        -1.8327549638     0.5581332524     0.3017948774
Bq        -1.8326694976     0.6031589487     0.2800536869
Bq        -1.8325840315     0.6481846450     0.2583124964
Bq        -1.8324985654     0.6932103414     0.2365713059
Bq        -1.8324130992     0.7382360377     0.2148301153
Bq        -1.8323276331     0.7832617340     0.1930889248
Bq        -1.8322421670     0.8282874304     0.1713477343
Bq        -1.8321567008     0.8733131267     0.1496065438
Bq        -1.8320712347     0.9183388230     0.1278653533
Bq        -1.8319857685     0.9633645194     0.1061241628
Bq        -1.8319003024     1.0083902157     0.0843829722
Bq        -1.8318148363     1.0534159120     0.0626417817
Bq        -1.8317293701     1.0984416084     0.0409005912
Bq        -1.8316439040     1.1434673047     0.0191594007
Bq        -1.8315584379     1.1884930011    -0.0025817898
Bq        -1.8314729717     1.2335186974    -0.0243229803
Bq        -1.8313875056     1.2785443937    -0.0460641709
Bq        -1.8313020394     1.3235700901    -0.0678053614
Bq        -1.8312165733     1.3685957864    -0.0895465519
Bq        -1.8311311072     1.4136214827    -0.1112877424
Bq        -1.8310456410     1.4586471791    -0.1330289329
Bq        -1.8309601749     1.5036728754    -0.1547701234
Bq        -1.8308747088     1.5486985717    -0.1765113140
Bq        -1.8307892426     1.5937242681    -0.1982525045
Bq        -1.8307037765     1.6387499644    -0.2199936950
Bq        -1.8306183104     1.6837756607    -0.2417348855
Bq        -1.8305328442     1.7288013571    -0.2634760760
Bq        -1.8304473781     1.7738270534    -0.2852172665
Bq        -1.8303619119     1.8188527497    -0.3069584570
Bq        -1.8302764458     1.8638784461    -0.3286996476
Bq        -1.8301909797     1.9089041424    -0.3504408381
Bq        -1.8301055135     1.9539298388    -0.3721820286
Bq        -1.8300200474     1.9989555351    -0.3939232191
Bq        -1.8299345813     2.0439812314    -0.4156644096
Bq        -1.8298491151     2.0890069278    -0.4374056001
Bq        -1.8297636490     2.1340326241    -0.4591467907
Bq        -1.8296781828     2.1790583204    -0.4808879812
Bq        -1.8295927167     2.2240840168    -0.5026291717
Bq        -1.7881397168    -2.2784856168     1.6716864319
Bq        -1.7880542506    -2.2334599204     1.6499452414
Bq        -1.7879687845    -2.1884342241     1.6282040509
Bq        -1.7878833184    -2.1434085278     1.6064628604
Bq        -1.7877978522    -2.0983828314     1.5847216698
Bq        -1.7877123861    -2.0533571351     1.5629804793
Bq        -1.7876269199    -2.0083314388     1.5412392888
Bq        -1.7875414538    -1.9633057424     1.5194980983
Bq        -1.7874559877    -1.9182800461     1.4977569078
Bq        -1.7873705215    -1.8732543497     1.4760157173
Bq        -1.7872850554    -1.8282286534     1.4542745267
Bq        -1.7871995893    -1.7832029571     1.4325333362
Bq        -1.7871141231    -1.7381772607     1.4107921457
Bq        -1.7870286570    -1.6931515644     1.3890509552
Bq        -1.7869431908    -1.6481258681     1.3673097647
Bq        -1.7868577247    -1.6031001717     1.3455685742
Bq        -1.7867722586    -1.5580744754     1.3238273836
Bq        -1.7866867924    -1.5130487791     1.3020861931
Bq        -1.7866013263    -1.4680230827     1.2803450026
Bq        -1.7865158602    -1.4229973864     1.2586038121
Bq        -1.7864303940    -1.3779716901     1.2368626216
Bq        -1.7863449279    -1.3329459937     1.2151214311
Bq        -1.7862594617    -1.2879202974     1.1933802405
Bq        -1.7861739956    -1.2428946011     1.1716390500
Bq        -1.7860885295    -1.1978689047     1.1498978595
Bq        -1.7860030633    -1.1528432084     1.1281566690
Bq        -1.7859175972    -1.1078175120     1.1064154785
Bq        -1.7858321311    -1.0627918157     1.0846742880
Bq        -1.7857466649    -1.0177661194     1.0629330974
Bq        -1.7856611988    -0.9727404230     1.0411919069
Bq        -1.7855757326    -0.9277147267     1.0194507164
Bq        -1.7854902665    -0.8826890304     0.9977095259
Bq        -1.7854048004    -0.8376633340     0.9759683354
Bq        -1.7853193342    -0.7926376377     0.9542271449
Bq        -1.7852338681    -0.7476119414     0.9324859543
Bq        -1.7851484020    -0.7025862450     0.9107447638
Bq        -1.7850629358    -0.6575605487     0.8890035733
Bq        -1.7849774697    -0.6125348524     0.8672623828
Bq        -1.7848920035    -0.5675091560     0.8455211923
Bq        -1.7848065374    -0.5224834597     0.8237800018
Bq        -1.7847210713    -0.4774577634     0.8020388113
Bq        -1.7846356051    -0.4324320670     0.7802976207
Bq        -1.7845501390    -0.3874063707     0.7585564302
Bq        -1.7844646729    -0.3423806743     0.7368152397
Bq        -1.7843792067    -0.2973549780     0.7150740492
Bq        -1.7842937406    -0.2523292817     0.6933328587
Bq        -1.7842082744    -0.2073035853     0.6715916682
Bq        -1.7841228083    -0.1622778890     0.6498504776
Bq        -1.7840373422    -0.1172521927     0.6281092871
Bq        -1.7839518760    -0.0722264963     0.6063680966
Bq        -1.7838664099    -0.0272008000     0.5846269061
Bq        -1.7837809438     0.0178248963     0.5628857156
Bq        -1.7836954776     0.0628505927     0.5411445251
Bq        -1.7836100115     0.1078762890     0.5194033345
Bq        -1.7835245453     0.1529019853     0.4976621440
Bq        -1.7834390792     0.1979276817     0.4759209535
Bq        -1.7833536131     0.2429533780     0.4541797630
Bq        -1.7832681469     0.2879790743     0.4324385725
Bq        -1.7831826808     0.3330047707     0.4106973820
Bq        -1.7830972147     0.3780304670     0.3889561914
Bq        -1.7830117485     0.4230561634     0.3672150009
Bq        -1.7829262824     0.4680818597     0.3454738104
Bq        -1.7828408163     0.5131075560     0.3237326199
Bq        -1.7827553501     0.5581332524     0.3019914294
Bq        -1.7826698840     0.6031589487     0.2802502389
Bq        -1.7825844178     0.6481846450     0.2585090483
Bq        -1.7824989517     0.6932103414     0.2367678578
Bq        -1.7824134856     0.7382360377     0.2150266673
Bq        -1.7823280194     0.7832617340     0.1932854768
Bq        -1.7822425533     0.8282874304     0.1715442863
Bq        -1.7821570872     0.8733131267     0.1498030958
Bq        -1.7820716210     0.9183388230     0.1280619052
Bq        -1.7819861549     0.9633645194     0.1063207147
Bq        -1.7819006887     1.0083902157     0.0845795242
Bq        -1.7818152226     1.0534159120     0.0628383337
Bq        -1.7817297565     1.0984416084     0.0410971432
Bq        -1.7816442903     1.1434673047     0.0193559527
Bq        -1.7815588242     1.1884930011    -0.0023852378
Bq        -1.7814733581     1.2335186974    -0.0241264284
Bq        -1.7813878919     1.2785443937    -0.0458676189
Bq        -1.7813024258     1.3235700901    -0.0676088094
Bq        -1.7812169596     1.3685957864    -0.0893499999
Bq        -1.7811314935     1.4136214827    -0.1110911904
Bq        -1.7810460274     1.4586471791    -0.1328323809
Bq        -1.7809605612     1.5036728754    -0.1545735715
Bq        -1.7808750951     1.5486985717    -0.1763147620
Bq        -1.7807896290     1.5937242681    -0.1980559525
Bq        -1.7807041628     1.6387499644    -0.2197971430
Bq        -1.7806186967     1.6837756607    -0.2415383335
Bq        -1.7805332305     1.7288013571    -0.2632795240
Bq        -1.7804477644     1.7738270534    -0.2850207146
Bq        -1.7803622983     1.8188527497    -0.3067619051
Bq        -1.7802768321     1.8638784461    -0.3285030956
Bq        -1.7801913660     1.9089041424    -0.3502442861
Bq        -1.7801058999     1.9539298388    -0.3719854766
Bq        -1.7800204337     1.9989555351    -0.3937266671
Bq        -1.7799349676     2.0439812314    -0.4154678577
Bq        -1.7798495014     2.0890069278    -0.4372090482
Bq        -1.7797640353     2.1340326241    -0.4589502387
Bq        -1.7796785692     2.1790583204    -0.4806914292
Bq        -1.7795931030     2.2240840168    -0.5024326197
Bq        -1.7381401031    -2.2784856168     1.6718829839
Bq        -1.7380546370    -2.2334599204     1.6501417934
Bq        -1.7379691708    -2.1884342241     1.6284006028
Bq        -1.7378837047    -2.1434085278     1.6066594123
Bq        -1.7377982385    -2.0983828314     1.5849182218
Bq        -1.7377127724    -2.0533571351     1.5631770313
Bq        -1.7376273063    -2.0083314388     1.5414358408
Bq        -1.7375418401    -1.9633057424     1.5196946503
Bq        -1.7374563740    -1.9182800461     1.4979534597
Bq        -1.7373709079    -1.8732543497     1.4762122692
Bq        -1.7372854417    -1.8282286534     1.4544710787
Bq        -1.7371999756    -1.7832029571     1.4327298882
Bq        -1.7371145094    -1.7381772607     1.4109886977
Bq        -1.7370290433    -1.6931515644     1.3892475072
Bq        -1.7369435772    -1.6481258681     1.3675063166
Bq        -1.7368581110    -1.6031001717     1.3457651261
Bq        -1.7367726449    -1.5580744754     1.3240239356
Bq        -1.7366871788    -1.5130487791     1.3022827451
Bq        -1.7366017126    -1.4680230827     1.2805415546
Bq        -1.7365162465    -1.4229973864     1.2588003641
Bq        -1.7364307803    -1.3779716901     1.2370591735
Bq        -1.7363453142    -1.3329459937     1.2153179830
Bq        -1.7362598481    -1.2879202974     1.1935767925
Bq        -1.7361743819    -1.2428946011     1.1718356020
Bq        -1.7360889158    -1.1978689047     1.1500944115
Bq        -1.7360034497    -1.1528432084     1.1283532210
Bq        -1.7359179835    -1.1078175120     1.1066120304
Bq        -1.7358325174    -1.0627918157     1.0848708399

1
2
3
4
5
6
7
8
9
10
11
12
13
14
15
16
17
18
19
20
21
22
23
24
25
26
27
28
29
30
31
32
33
34
35
36
37
38
39
40
41
42
43
44
45
46
47
48
49
50
51
52
53
54
55
56
57
58
59
60
61
62
63
64
65
66
67
68
69
70
71
72
73
74
75
76
77
78
79
80
81
82
83
84
85
86
87
88
89
90
91
92
93
94
95
96
97
98
99
100
101
102
103
104
105
106
107
108
109
110
111
112
113
114
115
116
117
118
119
120
121
122
123
124
125
126
127
128
129
130
131
132
133
134
135
136
137
138
139
140
141
142
143
144
145
146
147
148
149
150
151
152
153
154
155
156
157
158
159
160
161
162
163
164
165
166
167
168
169
170
171
172
173
174
175
176
177
178
179
180
181
182
183
184
185
186
187
188
189
190
191
192
193
194
195
196
197
198
199
200
201
202
203
204
205
206
207
208
209
210
211
212
213
214
215
216
217
218
219
220
221
222
223
224
225
226
227
228
229
230
231
232
233
234
235
236

