%nproc=8
%mem=1000MB
# rb3lyp/6-311+g** NMR geom=connectivity

Title

0 1
C    -4.0500558   -0.5771862    0.8136712
H    -5.0263804   -1.0082727    1.0024760
C    -3.9381552    0.6617804    0.2400876
H    -4.8252424    1.2338890   -0.0111295
C    -2.6768410    1.2433246    0.0057578
C    -1.4974121    0.5051527    0.2848253
C    -1.6508332   -0.7338728    0.9404026
H    -0.7713646   -1.2730967    1.2633753
C    -2.8898548   -1.2624035    1.1994307
H    -2.9683706   -2.2124563    1.7152676
C    -2.5773185    2.5963696   -0.4192930
H    -3.4870728    3.1412239   -0.6474055
C    -1.3741895    3.2147896   -0.4364030
H    -1.2997315    4.2742019   -0.6578144
C    -0.1719488    2.4994090   -0.1734588
C    -0.2043917    1.1018437    0.0192689
C     1.0513491    3.2042560   -0.0676222
H     1.0427344    4.2819499   -0.1896997
C     2.1942091    2.5487446    0.2579577
H     3.1168527    3.0912848    0.4334727
C     2.2216473    1.1336562    0.2934990
C     1.0486931    0.3945528    0.0302412
C     3.4483363    0.4614633    0.5573939
H     4.3095794    1.0606054    0.8334846
C     3.5427346   -0.8855926    0.4749463
H     4.4731467   -1.3939704    0.7038822
C     2.4490052   -1.6474447   -0.0196319
C     1.2150704   -1.0057258   -0.3013573
C     0.2531113   -1.7434440   -1.0216591
H    -0.6541356   -1.2535051   -1.3462847
C     0.4494193   -3.0628597   -1.3413779
H    -0.3083162   -3.5944309   -1.9054060
C     1.6251726   -3.7207967   -0.9552541
H     1.7670048   -4.7687404   -1.1927019
C     2.6109872   -3.0144177   -0.3183050
H     3.5525612   -3.4902813   -0.0646367
Bq         2.6437314502     0.1157970553     0.3817703198
Bq         2.6440875172     0.1657366629     0.3793395174
Bq         2.6444435841     0.2156762706     0.3769087150
Bq         2.6447996511     0.2656158783     0.3744779126
Bq         2.6451557181     0.3155554860     0.3720471102
Bq         2.6455117851     0.3654950937     0.3696163079
Bq         2.6458678520     0.4154347014     0.3671855055
Bq         2.6462239190     0.4653743091     0.3647547031
Bq         2.6465799860     0.5153139168     0.3623239007
Bq         2.6469360529     0.5652535245     0.3598930983
Bq         2.6472921199     0.6151931321     0.3574622959
Bq         2.6476481869     0.6651327398     0.3550314936
Bq         2.6480042539     0.7150723475     0.3526006912
Bq         2.6483603208     0.7650119552     0.3501698888
Bq         2.6487163878     0.8149515629     0.3477390864
Bq         2.6490724548     0.8648911706     0.3453082840
Bq         2.6494285217     0.9148307783     0.3428774816
Bq         2.6497845887     0.9647703860     0.3404466793
Bq         2.6501406557     1.0147099936     0.3380158769
Bq         2.6504967227     1.0646496013     0.3355850745
Bq         2.6508527896     1.1145892090     0.3331542721
Bq         2.6512088566     1.1645288167     0.3307234697
Bq         2.6515649236     1.2144684244     0.3282926673
Bq         2.6519209905     1.2644080321     0.3258618650
Bq         2.6522770575     1.3143476398     0.3234310626
Bq         2.6526331245     1.3642872475     0.3210002602
Bq         2.6529891914     1.4142268552     0.3185694578
Bq         2.6533452584     1.4641664628     0.3161386554
Bq         2.6537013254     1.5141060705     0.3137078530
Bq         2.6540573924     1.5640456782     0.3112770507
Bq         2.6544134593     1.6139852859     0.3088462483
Bq         2.6547695263     1.6639248936     0.3064154459
Bq         2.6551255933     1.7138645013     0.3039846435
Bq         2.6554816602     1.7638041090     0.3015538411
Bq         2.6558377272     1.8137437167     0.2991230387
Bq         2.6561937942     1.8636833244     0.2966922364
Bq         2.6565498612     1.9136229320     0.2942614340
Bq         2.6569059281     1.9635625397     0.2918306316
Bq         2.6572619951     2.0135021474     0.2893998292
Bq         2.6576180621     2.0634417551     0.2869690268
Bq         2.6579741290     2.1133813628     0.2845382244
Bq         2.6583301960     2.1633209705     0.2821074221
Bq         2.6586862630     2.2132605782     0.2796766197
Bq         2.6590423300     2.2632001859     0.2772458173
Bq         2.6593983969     2.3131397936     0.2748150149
Bq         2.6597544639     2.3630794012     0.2723842125
Bq         2.6601105309     2.4130190089     0.2699534101
Bq         2.6604665978     2.4629586166     0.2675226078
Bq         2.6608226648     2.5128982243     0.2650918054
Bq         2.6611787318     2.5628378320     0.2626610030
Bq         2.6615347987     2.6127774397     0.2602302006
Bq         2.6618908657     2.6627170474     0.2577993982
Bq         2.6622469327     2.7126566551     0.2553685958
Bq         2.6626029997     2.7625962627     0.2529377935
Bq         2.6629590666     2.8125358704     0.2505069911
Bq         2.6633151336     2.8624754781     0.2480761887
Bq         2.6636712006     2.9124150858     0.2456453863
Bq         2.6640272675     2.9623546935     0.2432145839
Bq         2.6643833345     3.0122943012     0.2407837815
Bq         2.6647394015     3.0622339089     0.2383529792
Bq         2.6650954685     3.1121735166     0.2359221768
Bq         2.6654515354     3.1621131243     0.2334913744
Bq         2.6658076024     3.2120527319     0.2310605720
Bq         2.6661636694     3.2619923396     0.2286297696
Bq         2.6665197363     3.3119319473     0.2261989673
Bq         2.6668758033     3.3618715550     0.2237681649
Bq         2.6672318703     3.4118111627     0.2213373625
Bq         2.6675879373     3.4617507704     0.2189065601
Bq         2.6679440042     3.5116903781     0.2164757577
Bq         2.6683000712     3.5616299858     0.2140449553
Bq         2.6686561382     3.6115695935     0.2116141530
Bq         2.6690122051     3.6615092011     0.2091833506
Bq         2.6693682721     3.7114488088     0.2067525482
Bq         2.6697243391     3.7613884165     0.2043217458
Bq         2.6700804060     3.8113280242     0.2018909434
Bq         2.6704364730     3.8612676319     0.1994601410
Bq         2.6707925400     3.9112072396     0.1970293387
Bq         2.6711486070     3.9611468473     0.1945985363
Bq         2.6715046739     4.0110864550     0.1921677339
Bq         2.6718607409     4.0610260627     0.1897369315
Bq         2.6722168079     4.1109656703     0.1873061291
Bq         2.6725728748     4.1609052780     0.1848753267
Bq         2.6729289418     4.2108448857     0.1824445244
Bq         2.6732850088     4.2607844934     0.1800137220
Bq         2.6736410758     4.3107241011     0.1775829196
Bq         2.6875064406    -0.6832366678     0.4279098874
Bq         2.6878625076    -0.6332970601     0.4254790850
Bq         2.6882185745    -0.5833574524     0.4230482826
Bq         2.6885746415    -0.5334178447     0.4206174802
Bq         2.6889307085    -0.4834782370     0.4181866778
Bq         2.6892867755    -0.4335386293     0.4157558754
Bq         2.6896428424    -0.3835990216     0.4133250731
Bq         2.6899989094    -0.3336594139     0.4108942707
Bq         2.6903549764    -0.2837198063     0.4084634683
Bq         2.6907110433    -0.2337801986     0.4060326659
Bq         2.6910671103    -0.1838405909     0.4036018635
Bq         2.6914231773    -0.1339009832     0.4011710612
Bq         2.6917792443    -0.0839613755     0.3987402588
Bq         2.6921353112    -0.0340217678     0.3963094564
Bq         2.6924913782     0.0159178399     0.3938786540
Bq         2.6928474452     0.0658574476     0.3914478516
Bq         2.6932035121     0.1157970553     0.3890170492
Bq         2.6935595791     0.1657366629     0.3865862469
Bq         2.6939156461     0.2156762706     0.3841554445
Bq         2.6942717131     0.2656158783     0.3817246421
Bq         2.6946277800     0.3155554860     0.3792938397
Bq         2.6949838470     0.3654950937     0.3768630373
Bq         2.6953399140     0.4154347014     0.3744322349
Bq         2.6956959809     0.4653743091     0.3720014326
Bq         2.6960520479     0.5153139168     0.3695706302
Bq         2.6964081149     0.5652535245     0.3671398278
Bq         2.6967641818     0.6151931321     0.3647090254
Bq         2.6971202488     0.6651327398     0.3622782230
Bq         2.6974763158     0.7150723475     0.3598474206
Bq         2.6978323828     0.7650119552     0.3574166183
Bq         2.6981884497     0.8149515629     0.3549858159
Bq         2.6985445167     0.8648911706     0.3525550135
Bq         2.6989005837     0.9148307783     0.3501242111
Bq         2.6992566506     0.9647703860     0.3476934087
Bq         2.6996127176     1.0147099936     0.3452626063
Bq         2.6999687846     1.0646496013     0.3428318040
Bq         2.7003248516     1.1145892090     0.3404010016
Bq         2.7006809185     1.1645288167     0.3379701992
Bq         2.7010369855     1.2144684244     0.3355393968
Bq         2.7013930525     1.2644080321     0.3331085944
Bq         2.7017491194     1.3143476398     0.3306777920
Bq         2.7021051864     1.3642872475     0.3282469897
Bq         2.7024612534     1.4142268552     0.3258161873
Bq         2.7028173204     1.4641664628     0.3233853849
Bq         2.7031733873     1.5141060705     0.3209545825
Bq         2.7035294543     1.5640456782     0.3185237801
Bq         2.7038855213     1.6139852859     0.3160929777
Bq         2.7042415882     1.6639248936     0.3136621754
Bq         2.7045976552     1.7138645013     0.3112313730
Bq         2.7049537222     1.7638041090     0.3088005706
Bq         2.7053097891     1.8137437167     0.3063697682
Bq         2.7056658561     1.8636833244     0.3039389658
Bq         2.7060219231     1.9136229320     0.3015081634
Bq         2.7063779901     1.9635625397     0.2990773611
Bq         2.7067340570     2.0135021474     0.2966465587
Bq         2.7070901240     2.0634417551     0.2942157563
Bq         2.7074461910     2.1133813628     0.2917849539
Bq         2.7078022579     2.1633209705     0.2893541515
Bq         2.7081583249     2.2132605782     0.2869233491
Bq         2.7085143919     2.2632001859     0.2844925468
Bq         2.7088704589     2.3131397936     0.2820617444
Bq         2.7092265258     2.3630794012     0.2796309420
Bq         2.7095825928     2.4130190089     0.2772001396
Bq         2.7099386598     2.4629586166     0.2747693372
Bq         2.7102947267     2.5128982243     0.2723385348
Bq         2.7106507937     2.5628378320     0.2699077325
Bq         2.7110068607     2.6127774397     0.2674769301
Bq         2.7113629277     2.6627170474     0.2650461277
Bq         2.7117189946     2.7126566551     0.2626153253
Bq         2.7120750616     2.7625962627     0.2601845229
Bq         2.7124311286     2.8125358704     0.2577537205
Bq         2.7127871955     2.8624754781     0.2553229182
Bq         2.7131432625     2.9124150858     0.2528921158
Bq         2.7134993295     2.9623546935     0.2504613134
Bq         2.7138553964     3.0122943012     0.2480305110
Bq         2.7142114634     3.0622339089     0.2455997086
Bq         2.7145675304     3.1121735166     0.2431689062
Bq         2.7149235974     3.1621131243     0.2407381039
Bq         2.7152796643     3.2120527319     0.2383073015
Bq         2.7156357313     3.2619923396     0.2358764991
Bq         2.7159917983     3.3119319473     0.2334456967
Bq         2.7163478652     3.3618715550     0.2310148943
Bq         2.7167039322     3.4118111627     0.2285840919
Bq         2.7170599992     3.4617507704     0.2261532896
Bq         2.7174160662     3.5116903781     0.2237224872
Bq         2.7177721331     3.5616299858     0.2212916848
Bq         2.7181282001     3.6115695935     0.2188608824
Bq         2.7184842671     3.6615092011     0.2164300800
Bq         2.7188403340     3.7114488088     0.2139992776
Bq         2.7191964010     3.7613884165     0.2115684753
Bq         2.7195524680     3.8113280242     0.2091376729
Bq         2.7199085350     3.8612676319     0.2067068705
Bq         2.7202646019     3.9112072396     0.2042760681
Bq         2.7206206689     3.9611468473     0.2018452657
Bq         2.7209767359     4.0110864550     0.1994144633
Bq         2.7213328028     4.0610260627     0.1969836610
Bq         2.7216888698     4.1109656703     0.1945528586
Bq         2.7220449368     4.1609052780     0.1921220562
Bq         2.7224010038     4.2108448857     0.1896912538
Bq         2.7227570707     4.2607844934     0.1872604514
Bq         2.7231131377     4.3107241011     0.1848296490
Bq         2.7369785025    -0.6832366678     0.4351566168
Bq         2.7373345695    -0.6332970601     0.4327258144
Bq         2.7376906365    -0.5833574524     0.4302950121
Bq         2.7380467035    -0.5334178447     0.4278642097
Bq         2.7384027704    -0.4834782370     0.4254334073
Bq         2.7387588374    -0.4335386293     0.4230026049
Bq         2.7391149044    -0.3835990216     0.4205718025
Bq         2.7394709713    -0.3336594139     0.4181410001
Bq         2.7398270383    -0.2837198063     0.4157101978
Bq         2.7401831053    -0.2337801986     0.4132793954
Bq         2.7405391723    -0.1838405909     0.4108485930
Bq         2.7408952392    -0.1339009832     0.4084177906
Bq         2.7412513062    -0.0839613755     0.4059869882
Bq         2.7416073732    -0.0340217678     0.4035561858

1
2
3
4
5
6
7
8
9
10
11
12
13
14
15
16
17
18
19
20
21
22
23
24
25
26
27
28
29
30
31
32
33
34
35
36
37
38
39
40
41
42
43
44
45
46
47
48
49
50
51
52
53
54
55
56
57
58
59
60
61
62
63
64
65
66
67
68
69
70
71
72
73
74
75
76
77
78
79
80
81
82
83
84
85
86
87
88
89
90
91
92
93
94
95
96
97
98
99
100
101
102
103
104
105
106
107
108
109
110
111
112
113
114
115
116
117
118
119
120
121
122
123
124
125
126
127
128
129
130
131
132
133
134
135
136
137
138
139
140
141
142
143
144
145
146
147
148
149
150
151
152
153
154
155
156
157
158
159
160
161
162
163
164
165
166
167
168
169
170
171
172
173
174
175
176
177
178
179
180
181
182
183
184
185
186
187
188
189
190
191
192
193
194
195
196
197
198
199
200
201
202
203
204
205
206
207
208
209
210
211
212
213
214
215
216
217
218
219
220
221
222
223
224
225
226
227
228
229
230
231
232
233
234
235
236

