%nproc=8
%mem=1000MB
# rb3lyp/6-311+g** NMR geom=connectivity

Title

0 1
C    -4.0500558   -0.5771862    0.8136712
H    -5.0263804   -1.0082727    1.0024760
C    -3.9381552    0.6617804    0.2400876
H    -4.8252424    1.2338890   -0.0111295
C    -2.6768410    1.2433246    0.0057578
C    -1.4974121    0.5051527    0.2848253
C    -1.6508332   -0.7338728    0.9404026
H    -0.7713646   -1.2730967    1.2633753
C    -2.8898548   -1.2624035    1.1994307
H    -2.9683706   -2.2124563    1.7152676
C    -2.5773185    2.5963696   -0.4192930
H    -3.4870728    3.1412239   -0.6474055
C    -1.3741895    3.2147896   -0.4364030
H    -1.2997315    4.2742019   -0.6578144
C    -0.1719488    2.4994090   -0.1734588
C    -0.2043917    1.1018437    0.0192689
C     1.0513491    3.2042560   -0.0676222
H     1.0427344    4.2819499   -0.1896997
C     2.1942091    2.5487446    0.2579577
H     3.1168527    3.0912848    0.4334727
C     2.2216473    1.1336562    0.2934990
C     1.0486931    0.3945528    0.0302412
C     3.4483363    0.4614633    0.5573939
H     4.3095794    1.0606054    0.8334846
C     3.5427346   -0.8855926    0.4749463
H     4.4731467   -1.3939704    0.7038822
C     2.4490052   -1.6474447   -0.0196319
C     1.2150704   -1.0057258   -0.3013573
C     0.2531113   -1.7434440   -1.0216591
H    -0.6541356   -1.2535051   -1.3462847
C     0.4494193   -3.0628597   -1.3413779
H    -0.3083162   -3.5944309   -1.9054060
C     1.6251726   -3.7207967   -0.9552541
H     1.7670048   -4.7687404   -1.1927019
C     2.6109872   -3.0144177   -0.3183050
H     3.5525612   -3.4902813   -0.0646367
Bq        -0.0816989627     0.5029905529     0.2770406741
Bq        -0.0812124856     0.5514604688     0.2647756594
Bq        -0.0807260085     0.5999303848     0.2525106447
Bq        -0.0802395314     0.6484003008     0.2402456300
Bq        -0.0797530543     0.6968702167     0.2279806153
Bq        -0.0792665772     0.7453401327     0.2157156006
Bq        -0.0787801001     0.7938100487     0.2034505859
Bq        -0.0782936229     0.8422799646     0.1911855711
Bq        -0.0778071458     0.8907498806     0.1789205564
Bq        -0.0773206687     0.9392197966     0.1666555417
Bq        -0.0768341916     0.9876897125     0.1543905270
Bq        -0.0763477145     1.0361596285     0.1421255123
Bq        -0.0758612374     1.0846295445     0.1298604976
Bq        -0.0753747603     1.1330994605     0.1175954829
Bq        -0.0748882832     1.1815693764     0.1053304682
Bq        -0.0744018060     1.2300392924     0.0930654534
Bq        -0.0739153289     1.2785092084     0.0808004387
Bq        -0.0734288518     1.3269791243     0.0685354240
Bq        -0.0729423747     1.3754490403     0.0562704093
Bq        -0.0724558976     1.4239189563     0.0440053946
Bq        -0.0719694205     1.4723888722     0.0317403799
Bq        -0.0714829434     1.5208587882     0.0194753652
Bq        -0.0709964663     1.5693287042     0.0072103504
Bq        -0.0705099891     1.6177986202    -0.0050546643
Bq        -0.0700235120     1.6662685361    -0.0173196790
Bq        -0.0695370349     1.7147384521    -0.0295846937
Bq        -0.0690505578     1.7632083681    -0.0418497084
Bq        -0.0685640807     1.8116782840    -0.0541147231
Bq        -0.0680776036     1.8601482000    -0.0663797378
Bq        -0.0675911265     1.9086181160    -0.0786447525
Bq        -0.0671046494     1.9570880319    -0.0909097673
Bq        -0.0666181723     2.0055579479    -0.1031747820
Bq        -0.0661316951     2.0540278639    -0.1154397967
Bq        -0.0656452180     2.1024977798    -0.1277048114
Bq        -0.0651587409     2.1509676958    -0.1399698261
Bq        -0.0646722638     2.1994376118    -0.1522348408
Bq        -0.0641857867     2.2479075278    -0.1644998555
Bq        -0.0636993096     2.2963774437    -0.1767648703
Bq        -0.0632128325     2.3448473597    -0.1890298850
Bq        -0.0627263554     2.3933172757    -0.2012948997
Bq        -0.0622398782     2.4417871916    -0.2135599144
Bq        -0.0617534011     2.4902571076    -0.2258249291
Bq        -0.0612669240     2.5387270236    -0.2380899438
Bq        -0.0607804469     2.5871969395    -0.2503549585
Bq        -0.0602939698     2.6356668555    -0.2626199733
Bq        -0.0598074927     2.6841367715    -0.2748849880
Bq        -0.0593210156     2.7326066875    -0.2871500027
Bq        -0.0588345385     2.7810766034    -0.2994150174
Bq        -0.0583480613     2.8295465194    -0.3116800321
Bq        -0.0578615842     2.8780164354    -0.3239450468
Bq        -0.0573751071     2.9264863513    -0.3362100615
Bq        -0.0568886300     2.9749562673    -0.3484750762
Bq        -0.0564021529     3.0234261833    -0.3607400910
Bq        -0.0559156758     3.0718960992    -0.3730051057
Bq        -0.0554291987     3.1203660152    -0.3852701204
Bq        -0.0549427216     3.1688359312    -0.3975351351
Bq        -0.0544562444     3.2173058471    -0.4098001498
Bq        -0.0539697673     3.2657757631    -0.4220651645
Bq        -0.0534832902     3.3142456791    -0.4343301792
Bq        -0.0529968131     3.3627155951    -0.4465951940
Bq        -0.0525103360     3.4111855110    -0.4588602087
Bq        -0.0520238589     3.4596554270    -0.4711252234
Bq        -0.0515373818     3.5081253430    -0.4833902381
Bq        -0.0510509047     3.5565952589    -0.4956552528
Bq        -0.0505644275     3.6050651749    -0.5079202675
Bq        -0.0500779504     3.6535350909    -0.5201852822
Bq        -0.0495914733     3.7020050068    -0.5324502970
Bq        -0.0491049962     3.7504749228    -0.5447153117
Bq        -0.0486185191     3.7989448388    -0.5569803264
Bq        -0.0481320420     3.8474147548    -0.5692453411
Bq        -0.0476455649     3.8958846707    -0.5815103558
Bq        -0.0471590878     3.9443545867    -0.5937753705
Bq        -0.0466726107     3.9928245027    -0.6060403852
Bq        -0.0461861335     4.0412944186    -0.6183053999
Bq        -0.0456996564     4.0897643346    -0.6305704147
Bq        -0.0452131793     4.1382342506    -0.6428354294
Bq        -0.0447267022     4.1867041665    -0.6551004441
Bq        -0.0442402251     4.2351740825    -0.6673654588
Bq        -0.0437537480     4.2836439985    -0.6796304735
Bq        -0.0424407433    -0.5633475985     0.5488526298
Bq        -0.0419542662    -0.5148776825     0.5365876151
Bq        -0.0414677891    -0.4664077665     0.5243226003
Bq        -0.0409813119    -0.4179378506     0.5120575856
Bq        -0.0404948348    -0.3694679346     0.4997925709
Bq        -0.0400083577    -0.3209980186     0.4875275562
Bq        -0.0395218806    -0.2725281027     0.4752625415
Bq        -0.0390354035    -0.2240581867     0.4629975268
Bq        -0.0385489264    -0.1755882707     0.4507325121
Bq        -0.0380624493    -0.1271183548     0.4384674974
Bq        -0.0375759722    -0.0786484388     0.4262024826
Bq        -0.0370894950    -0.0301785228     0.4139374679
Bq        -0.0366030179     0.0182913932     0.4016724532
Bq        -0.0361165408     0.0667613091     0.3894074385
Bq        -0.0356300637     0.1152312251     0.3771424238
Bq        -0.0351435866     0.1637011411     0.3648774091
Bq        -0.0346571095     0.2121710570     0.3526123944
Bq        -0.0341706324     0.2606409730     0.3403473796
Bq        -0.0336841553     0.3091108890     0.3280823649
Bq        -0.0331976782     0.3575808049     0.3158173502
Bq        -0.0327112010     0.4060507209     0.3035523355
Bq        -0.0322247239     0.4545206369     0.2912873208
Bq        -0.0317382468     0.5029905529     0.2790223061
Bq        -0.0312517697     0.5514604688     0.2667572914
Bq        -0.0307652926     0.5999303848     0.2544922766
Bq        -0.0302788155     0.6484003008     0.2422272619
Bq        -0.0297923384     0.6968702167     0.2299622472
Bq        -0.0293058613     0.7453401327     0.2176972325
Bq        -0.0288193841     0.7938100487     0.2054322178
Bq        -0.0283329070     0.8422799646     0.1931672031
Bq        -0.0278464299     0.8907498806     0.1809021884
Bq        -0.0273599528     0.9392197966     0.1686371737
Bq        -0.0268734757     0.9876897125     0.1563721589
Bq        -0.0263869986     1.0361596285     0.1441071442
Bq        -0.0259005215     1.0846295445     0.1318421295
Bq        -0.0254140444     1.1330994605     0.1195771148
Bq        -0.0249275672     1.1815693764     0.1073121001
Bq        -0.0244410901     1.2300392924     0.0950470854
Bq        -0.0239546130     1.2785092084     0.0827820707
Bq        -0.0234681359     1.3269791243     0.0705170559
Bq        -0.0229816588     1.3754490403     0.0582520412
Bq        -0.0224951817     1.4239189563     0.0459870265
Bq        -0.0220087046     1.4723888722     0.0337220118
Bq        -0.0215222275     1.5208587882     0.0214569971
Bq        -0.0210357503     1.5693287042     0.0091919824
Bq        -0.0205492732     1.6177986202    -0.0030730323
Bq        -0.0200627961     1.6662685361    -0.0153380470
Bq        -0.0195763190     1.7147384521    -0.0276030618
Bq        -0.0190898419     1.7632083681    -0.0398680765
Bq        -0.0186033648     1.8116782840    -0.0521330912
Bq        -0.0181168877     1.8601482000    -0.0643981059
Bq        -0.0176304106     1.9086181160    -0.0766631206
Bq        -0.0171439334     1.9570880319    -0.0889281353
Bq        -0.0166574563     2.0055579479    -0.1011931500
Bq        -0.0161709792     2.0540278639    -0.1134581648
Bq        -0.0156845021     2.1024977798    -0.1257231795
Bq        -0.0151980250     2.1509676958    -0.1379881942
Bq        -0.0147115479     2.1994376118    -0.1502532089
Bq        -0.0142250708     2.2479075278    -0.1625182236
Bq        -0.0137385937     2.2963774437    -0.1747832383
Bq        -0.0132521166     2.3448473597    -0.1870482530
Bq        -0.0127656394     2.3933172757    -0.1993132678
Bq        -0.0122791623     2.4417871916    -0.2115782825
Bq        -0.0117926852     2.4902571076    -0.2238432972
Bq        -0.0113062081     2.5387270236    -0.2361083119
Bq        -0.0108197310     2.5871969395    -0.2483733266
Bq        -0.0103332539     2.6356668555    -0.2606383413
Bq        -0.0098467768     2.6841367715    -0.2729033560
Bq        -0.0093602997     2.7326066875    -0.2851683707
Bq        -0.0088738225     2.7810766034    -0.2974333855
Bq        -0.0083873454     2.8295465194    -0.3096984002
Bq        -0.0079008683     2.8780164354    -0.3219634149
Bq        -0.0074143912     2.9264863513    -0.3342284296
Bq        -0.0069279141     2.9749562673    -0.3464934443
Bq        -0.0064414370     3.0234261833    -0.3587584590
Bq        -0.0059549599     3.0718960992    -0.3710234737
Bq        -0.0054684828     3.1203660152    -0.3832884885
Bq        -0.0049820056     3.1688359312    -0.3955535032
Bq        -0.0044955285     3.2173058471    -0.4078185179
Bq        -0.0040090514     3.2657757631    -0.4200835326
Bq        -0.0035225743     3.3142456791    -0.4323485473
Bq        -0.0030360972     3.3627155951    -0.4446135620
Bq        -0.0025496201     3.4111855110    -0.4568785767
Bq        -0.0020631430     3.4596554270    -0.4691435915
Bq        -0.0015766659     3.5081253430    -0.4814086062
Bq        -0.0010901887     3.5565952589    -0.4936736209
Bq        -0.0006037116     3.6050651749    -0.5059386356
Bq        -0.0001172345     3.6535350909    -0.5182036503
Bq         0.0003692426     3.7020050068    -0.5304686650
Bq         0.0008557197     3.7504749228    -0.5427336797
Bq         0.0013421968     3.7989448388    -0.5549986944
Bq         0.0018286739     3.8474147548    -0.5672637092
Bq         0.0023151510     3.8958846707    -0.5795287239
Bq         0.0028016282     3.9443545867    -0.5917937386
Bq         0.0032881053     3.9928245027    -0.6040587533
Bq         0.0037745824     4.0412944186    -0.6163237680
Bq         0.0042610595     4.0897643346    -0.6285887827
Bq         0.0047475366     4.1382342506    -0.6408537974
Bq         0.0052340137     4.1867041665    -0.6531188122
Bq         0.0057204908     4.2351740825    -0.6653838269
Bq         0.0062069679     4.2836439985    -0.6776488416
Bq         0.0075199726    -0.5633475985     0.5508342617
Bq         0.0080064497    -0.5148776825     0.5385692470
Bq         0.0084929269    -0.4664077665     0.5263042323
Bq         0.0089794040    -0.4179378506     0.5140392176
Bq         0.0094658811    -0.3694679346     0.5017742029
Bq         0.0099523582    -0.3209980186     0.4895091881
Bq         0.0104388353    -0.2725281027     0.4772441734
Bq         0.0109253124    -0.2240581867     0.4649791587
Bq         0.0114117895    -0.1755882707     0.4527141440
Bq         0.0118982666    -0.1271183548     0.4404491293
Bq         0.0123847438    -0.0786484388     0.4281841146
Bq         0.0128712209    -0.0301785228     0.4159190999
Bq         0.0133576980     0.0182913932     0.4036540851
Bq         0.0138441751     0.0667613091     0.3913890704
Bq         0.0143306522     0.1152312251     0.3791240557
Bq         0.0148171293     0.1637011411     0.3668590410
Bq         0.0153036064     0.2121710570     0.3545940263
Bq         0.0157900835     0.2606409730     0.3423290116
Bq         0.0162765607     0.3091108890     0.3300639969
Bq         0.0167630378     0.3575808049     0.3177989821

1
2
3
4
5
6
7
8
9
10
11
12
13
14
15
16
17
18
19
20
21
22
23
24
25
26
27
28
29
30
31
32
33
34
35
36
37
38
39
40
41
42
43
44
45
46
47
48
49
50
51
52
53
54
55
56
57
58
59
60
61
62
63
64
65
66
67
68
69
70
71
72
73
74
75
76
77
78
79
80
81
82
83
84
85
86
87
88
89
90
91
92
93
94
95
96
97
98
99
100
101
102
103
104
105
106
107
108
109
110
111
112
113
114
115
116
117
118
119
120
121
122
123
124
125
126
127
128
129
130
131
132
133
134
135
136
137
138
139
140
141
142
143
144
145
146
147
148
149
150
151
152
153
154
155
156
157
158
159
160
161
162
163
164
165
166
167
168
169
170
171
172
173
174
175
176
177
178
179
180
181
182
183
184
185
186
187
188
189
190
191
192
193
194
195
196
197
198
199
200
201
202
203
204
205
206
207
208
209
210
211
212
213
214
215
216
217
218
219
220
221
222
223
224
225
226
227
228
229
230
231
232
233
234
235
236

