%nproc=8
%mem=1000MB
# rb3lyp/6-311+g** NMR geom=connectivity

Title

0 1
C    -4.0500558   -0.5771862    0.8136712
H    -5.0263804   -1.0082727    1.0024760
C    -3.9381552    0.6617804    0.2400876
H    -4.8252424    1.2338890   -0.0111295
C    -2.6768410    1.2433246    0.0057578
C    -1.4974121    0.5051527    0.2848253
C    -1.6508332   -0.7338728    0.9404026
H    -0.7713646   -1.2730967    1.2633753
C    -2.8898548   -1.2624035    1.1994307
H    -2.9683706   -2.2124563    1.7152676
C    -2.5773185    2.5963696   -0.4192930
H    -3.4870728    3.1412239   -0.6474055
C    -1.3741895    3.2147896   -0.4364030
H    -1.2997315    4.2742019   -0.6578144
C    -0.1719488    2.4994090   -0.1734588
C    -0.2043917    1.1018437    0.0192689
C     1.0513491    3.2042560   -0.0676222
H     1.0427344    4.2819499   -0.1896997
C     2.1942091    2.5487446    0.2579577
H     3.1168527    3.0912848    0.4334727
C     2.2216473    1.1336562    0.2934990
C     1.0486931    0.3945528    0.0302412
C     3.4483363    0.4614633    0.5573939
H     4.3095794    1.0606054    0.8334846
C     3.5427346   -0.8855926    0.4749463
H     4.4731467   -1.3939704    0.7038822
C     2.4490052   -1.6474447   -0.0196319
C     1.2150704   -1.0057258   -0.3013573
C     0.2531113   -1.7434440   -1.0216591
H    -0.6541356   -1.2535051   -1.3462847
C     0.4494193   -3.0628597   -1.3413779
H    -0.3083162   -3.5944309   -1.9054060
C     1.6251726   -3.7207967   -0.9552541
H     1.7670048   -4.7687404   -1.1927019
C     2.6109872   -3.0144177   -0.3183050
H     3.5525612   -3.4902813   -0.0646367
Bq         2.3209144833    -0.2581818000     0.1725152000
Bq        -0.0012155044    -2.7327491509    -0.8195678337
Bq        -0.0030610297    -2.6832578039    -0.8126975639
Bq        -0.0049065550    -2.6337664569    -0.8058272941
Bq        -0.0067520802    -2.5842751098    -0.7989570244
Bq        -0.0085976055    -2.5347837628    -0.7920867546
Bq        -0.0104431308    -2.4852924158    -0.7852164848
Bq        -0.0122886561    -2.4358010688    -0.7783462150
Bq        -0.0141341813    -2.3863097218    -0.7714759452
Bq        -0.0159797066    -2.3368183748    -0.7646056755
Bq        -0.0178252319    -2.2873270277    -0.7577354057
Bq        -0.0196707571    -2.2378356807    -0.7508651359
Bq        -0.0215162824    -2.1883443337    -0.7439948661
Bq        -0.0233618077    -2.1388529867    -0.7371245963
Bq        -0.0252073329    -2.0893616397    -0.7302543266
Bq        -0.0270528582    -2.0398702926    -0.7233840568
Bq        -0.0288983835    -1.9903789456    -0.7165137870
Bq        -0.0307439087    -1.9408875986    -0.7096435172
Bq        -0.0325894340    -1.8913962516    -0.7027732474
Bq        -0.0344349593    -1.8419049046    -0.6959029777
Bq        -0.0362804845    -1.7924135576    -0.6890327079
Bq        -0.0381260098    -1.7429222105    -0.6821624381
Bq        -0.0399715351    -1.6934308635    -0.6752921683
Bq        -0.0418170603    -1.6439395165    -0.6684218985
Bq        -0.0436625856    -1.5944481695    -0.6615516288
Bq        -0.0455081109    -1.5449568225    -0.6546813590
Bq        -0.0473536361    -1.4954654754    -0.6478110892
Bq        -0.0491991614    -1.4459741284    -0.6409408194
Bq        -0.0510446867    -1.3964827814    -0.6340705497
Bq        -0.0528902119    -1.3469914344    -0.6272002799
Bq        -0.0547357372    -1.2975000874    -0.6203300101
Bq        -0.0565812625    -1.2480087404    -0.6134597403
Bq        -0.0584267877    -1.1985173933    -0.6065894705
Bq        -0.0602723130    -1.1490260463    -0.5997192008
Bq        -0.0621178383    -1.0995346993    -0.5928489310
Bq        -0.0639633635    -1.0500433523    -0.5859786612
Bq        -0.0658088888    -1.0005520053    -0.5791083914
Bq        -0.0676544141    -0.9510606583    -0.5722381216
Bq        -0.0694999393    -0.9015693112    -0.5653678519
Bq        -0.0713454646    -0.8520779642    -0.5584975821
Bq        -0.0731909899    -0.8025866172    -0.5516273123
Bq        -0.0750365152    -0.7530952702    -0.5447570425
Bq        -0.0768820404    -0.7036039232    -0.5378867727
Bq        -0.0787275657    -0.6541125761    -0.5310165030
Bq        -0.0805730910    -0.6046212291    -0.5241462332
Bq        -0.0824186162    -0.5551298821    -0.5172759634
Bq        -0.0842641415    -0.5056385351    -0.5104056936
Bq        -0.0861096668    -0.4561471881    -0.5035354238
Bq        -0.0879551920    -0.4066558411    -0.4966651541
Bq        -0.0898007173    -0.3571644940    -0.4897948843
Bq        -0.0916462426    -0.3076731470    -0.4829246145
Bq        -0.0934917678    -0.2581818000    -0.4760543447
Bq        -0.0953372931    -0.2086904530    -0.4691840749
Bq        -0.0971828184    -0.1591991060    -0.4623138052
Bq        -0.0990283436    -0.1097077589    -0.4554435354
Bq        -0.1008738689    -0.0602164119    -0.4485732656
Bq        -0.1027193942    -0.0107250649    -0.4417029958
Bq        -0.1045649194     0.0387662821    -0.4348327260
Bq        -0.1064104447     0.0882576291    -0.4279624563
Bq        -0.1082559700     0.1377489761    -0.4210921865
Bq        -0.1101014952     0.1872403232    -0.4142219167
Bq        -0.1119470205     0.2367316702    -0.4073516469
Bq        -0.1137925458     0.2862230172    -0.4004813772
Bq        -0.1156380710     0.3357143642    -0.3936111074
Bq        -0.1174835963     0.3852057112    -0.3867408376
Bq        -0.1193291216     0.4346970583    -0.3798705678
Bq        -0.1211746468     0.4841884053    -0.3730002980
Bq        -0.1230201721     0.5336797523    -0.3661300283
Bq        -0.1248656974     0.5831710993    -0.3592597585
Bq        -0.1267112226     0.6326624463    -0.3523894887
Bq        -0.1285567479     0.6821537933    -0.3455192189
Bq        -0.1304022732     0.7316451404    -0.3386489491
Bq        -0.1322477985     0.7811364874    -0.3317786794
Bq        -0.1340933237     0.8306278344    -0.3249084096
Bq        -0.1359388490     0.8801191814    -0.3180381398
Bq        -0.1377843743     0.9296105284    -0.3111678700
Bq        -0.1396298995     0.9791018754    -0.3042976002
Bq        -0.1414754248     1.0285932225    -0.2974273305
Bq        -0.1433209501     1.0780845695    -0.2905570607
Bq        -0.1451664753     1.1275759165    -0.2836867909
Bq        -0.1470120006     1.1770672635    -0.2768165211
Bq        -0.1488575259     1.2265586105    -0.2699462513
Bq        -0.1507030511     1.2760499576    -0.2630759816
Bq        -0.1525485764     1.3255413046    -0.2562057118
Bq        -0.1543941017     1.3750326516    -0.2493354420
Bq        -0.1562396269     1.4245239986    -0.2424651722
Bq        -0.1580851522     1.4740153456    -0.2355949024
Bq        -0.1599306775     1.5235066926    -0.2287246327
Bq        -0.1617762027     1.5729980397    -0.2218543629
Bq        -0.1636217280     1.6224893867    -0.2149840931
Bq        -0.1654672533     1.6719807337    -0.2081138233
Bq        -0.1673127785     1.7214720807    -0.2012435535
Bq        -0.1691583038     1.7709634277    -0.1943732838
Bq        -0.1710038291     1.8204547748    -0.1875030140
Bq        -0.1728493543     1.8699461218    -0.1806327442
Bq        -0.1746948796     1.9194374688    -0.1737624744
Bq        -0.1765404049     1.9689288158    -0.1668922046
Bq        -0.1783859301     2.0184201628    -0.1600219349
Bq        -0.1802314554     2.0679115098    -0.1531516651
Bq        -0.1820769807     2.1174028569    -0.1462813953
Bq        -0.1839225059     2.1668942039    -0.1394111255
Bq        -0.1857680312     2.2163855509    -0.1325408558
Bq         0.0470726206    -2.7327491509    -0.8065964428
Bq         0.0452270953    -2.6832578039    -0.7997261730
Bq         0.0433815700    -2.6337664569    -0.7928559032
Bq         0.0415360448    -2.5842751098    -0.7859856335
Bq         0.0396905195    -2.5347837628    -0.7791153637
Bq         0.0378449942    -2.4852924158    -0.7722450939
Bq         0.0359994690    -2.4358010688    -0.7653748241
Bq         0.0341539437    -2.3863097218    -0.7585045543
Bq         0.0323084184    -2.3368183748    -0.7516342846
Bq         0.0304628932    -2.2873270277    -0.7447640148
Bq         0.0286173679    -2.2378356807    -0.7378937450
Bq         0.0267718426    -2.1883443337    -0.7310234752
Bq         0.0249263174    -2.1388529867    -0.7241532054
Bq         0.0230807921    -2.0893616397    -0.7172829357
Bq         0.0212352668    -2.0398702926    -0.7104126659
Bq         0.0193897416    -1.9903789456    -0.7035423961
Bq         0.0175442163    -1.9408875986    -0.6966721263
Bq         0.0156986910    -1.8913962516    -0.6898018566
Bq         0.0138531658    -1.8419049046    -0.6829315868
Bq         0.0120076405    -1.7924135576    -0.6760613170
Bq         0.0101621152    -1.7429222105    -0.6691910472
Bq         0.0083165900    -1.6934308635    -0.6623207774
Bq         0.0064710647    -1.6439395165    -0.6554505077
Bq         0.0046255394    -1.5944481695    -0.6485802379
Bq         0.0027800142    -1.5449568225    -0.6417099681
Bq         0.0009344889    -1.4954654754    -0.6348396983
Bq        -0.0009110364    -1.4459741284    -0.6279694285
Bq        -0.0027565616    -1.3964827814    -0.6210991588
Bq        -0.0046020869    -1.3469914344    -0.6142288890
Bq        -0.0064476122    -1.2975000874    -0.6073586192
Bq        -0.0082931375    -1.2480087404    -0.6004883494
Bq        -0.0101386627    -1.1985173933    -0.5936180796
Bq        -0.0119841880    -1.1490260463    -0.5867478099
Bq        -0.0138297133    -1.0995346993    -0.5798775401
Bq        -0.0156752385    -1.0500433523    -0.5730072703
Bq        -0.0175207638    -1.0005520053    -0.5661370005
Bq        -0.0193662891    -0.9510606583    -0.5592667307
Bq        -0.0212118143    -0.9015693112    -0.5523964610
Bq        -0.0230573396    -0.8520779642    -0.5455261912
Bq        -0.0249028649    -0.8025866172    -0.5386559214
Bq        -0.0267483901    -0.7530952702    -0.5317856516
Bq        -0.0285939154    -0.7036039232    -0.5249153818
Bq        -0.0304394407    -0.6541125761    -0.5180451121
Bq        -0.0322849659    -0.6046212291    -0.5111748423
Bq        -0.0341304912    -0.5551298821    -0.5043045725
Bq        -0.0359760165    -0.5056385351    -0.4974343027
Bq        -0.0378215417    -0.4561471881    -0.4905640329
Bq        -0.0396670670    -0.4066558411    -0.4836937632
Bq        -0.0415125923    -0.3571644940    -0.4768234934
Bq        -0.0433581175    -0.3076731470    -0.4699532236
Bq        -0.0452036428    -0.2581818000    -0.4630829538
Bq        -0.0470491681    -0.2086904530    -0.4562126841
Bq        -0.0488946933    -0.1591991060    -0.4493424143
Bq        -0.0507402186    -0.1097077589    -0.4424721445
Bq        -0.0525857439    -0.0602164119    -0.4356018747
Bq        -0.0544312691    -0.0107250649    -0.4287316049
Bq        -0.0562767944     0.0387662821    -0.4218613352
Bq        -0.0581223197     0.0882576291    -0.4149910654
Bq        -0.0599678449     0.1377489761    -0.4081207956
Bq        -0.0618133702     0.1872403232    -0.4012505258
Bq        -0.0636588955     0.2367316702    -0.3943802560
Bq        -0.0655044208     0.2862230172    -0.3875099863
Bq        -0.0673499460     0.3357143642    -0.3806397165
Bq        -0.0691954713     0.3852057112    -0.3737694467
Bq        -0.0710409966     0.4346970583    -0.3668991769
Bq        -0.0728865218     0.4841884053    -0.3600289071
Bq        -0.0747320471     0.5336797523    -0.3531586374
Bq        -0.0765775724     0.5831710993    -0.3462883676
Bq        -0.0784230976     0.6326624463    -0.3394180978
Bq        -0.0802686229     0.6821537933    -0.3325478280
Bq        -0.0821141482     0.7316451404    -0.3256775582
Bq        -0.0839596734     0.7811364874    -0.3188072885
Bq        -0.0858051987     0.8306278344    -0.3119370187
Bq        -0.0876507240     0.8801191814    -0.3050667489
Bq        -0.0894962492     0.9296105284    -0.2981964791
Bq        -0.0913417745     0.9791018754    -0.2913262093
Bq        -0.0931872998     1.0285932225    -0.2844559396
Bq        -0.0950328250     1.0780845695    -0.2775856698
Bq        -0.0968783503     1.1275759165    -0.2707154000
Bq        -0.0987238756     1.1770672635    -0.2638451302
Bq        -0.1005694008     1.2265586105    -0.2569748604
Bq        -0.1024149261     1.2760499576    -0.2501045907
Bq        -0.1042604514     1.3255413046    -0.2432343209
Bq        -0.1061059766     1.3750326516    -0.2363640511
Bq        -0.1079515019     1.4245239986    -0.2294937813
Bq        -0.1097970272     1.4740153456    -0.2226235115
Bq        -0.1116425524     1.5235066926    -0.2157532418
Bq        -0.1134880777     1.5729980397    -0.2088829720
Bq        -0.1153336030     1.6224893867    -0.2020127022
Bq        -0.1171791282     1.6719807337    -0.1951424324
Bq        -0.1190246535     1.7214720807    -0.1882721627
Bq        -0.1208701788     1.7709634277    -0.1814018929
Bq        -0.1227157040     1.8204547748    -0.1745316231
Bq        -0.1245612293     1.8699461218    -0.1676613533
Bq        -0.1264067546     1.9194374688    -0.1607910835
Bq        -0.1282522799     1.9689288158    -0.1539208138
Bq        -0.1300978051     2.0184201628    -0.1470505440
Bq        -0.1319433304     2.0679115098    -0.1401802742

1
2
3
4
5
6
7
8
9
10
11
12
13
14
15
16
17
18
19
20
21
22
23
24
25
26
27
28
29
30
31
32
33
34
35
36
37
38
39
40
41
42
43
44
45
46
47
48
49
50
51
52
53
54
55
56
57
58
59
60
61
62
63
64
65
66
67
68
69
70
71
72
73
74
75
76
77
78
79
80
81
82
83
84
85
86
87
88
89
90
91
92
93
94
95
96
97
98
99
100
101
102
103
104
105
106
107
108
109
110
111
112
113
114
115
116
117
118
119
120
121
122
123
124
125
126
127
128
129
130
131
132
133
134
135
136
137
138
139
140
141
142
143
144
145
146
147
148
149
150
151
152
153
154
155
156
157
158
159
160
161
162
163
164
165
166
167
168
169
170
171
172
173
174
175
176
177
178
179
180
181
182
183
184
185
186
187
188
189
190
191
192
193
194
195
196
197
198
199
200
201
202
203
204
205
206
207
208
209
210
211
212
213
214
215
216
217
218
219
220
221
222
223
224
225
226
227
228
229
230
231
232
233
234
235
236

