%nproc=8
%mem=1000MB
# rb3lyp/6-311+g** NMR geom=connectivity

Title

0 1
C    -4.0500558   -0.5771862    0.8136712
H    -5.0263804   -1.0082727    1.0024760
C    -3.9381552    0.6617804    0.2400876
H    -4.8252424    1.2338890   -0.0111295
C    -2.6768410    1.2433246    0.0057578
C    -1.4974121    0.5051527    0.2848253
C    -1.6508332   -0.7338728    0.9404026
H    -0.7713646   -1.2730967    1.2633753
C    -2.8898548   -1.2624035    1.1994307
H    -2.9683706   -2.2124563    1.7152676
C    -2.5773185    2.5963696   -0.4192930
H    -3.4870728    3.1412239   -0.6474055
C    -1.3741895    3.2147896   -0.4364030
H    -1.2997315    4.2742019   -0.6578144
C    -0.1719488    2.4994090   -0.1734588
C    -0.2043917    1.1018437    0.0192689
C     1.0513491    3.2042560   -0.0676222
H     1.0427344    4.2819499   -0.1896997
C     2.1942091    2.5487446    0.2579577
H     3.1168527    3.0912848    0.4334727
C     2.2216473    1.1336562    0.2934990
C     1.0486931    0.3945528    0.0302412
C     3.4483363    0.4614633    0.5573939
H     4.3095794    1.0606054    0.8334846
C     3.5427346   -0.8855926    0.4749463
H     4.4731467   -1.3939704    0.7038822
C     2.4490052   -1.6474447   -0.0196319
C     1.2150704   -1.0057258   -0.3013573
C     0.2531113   -1.7434440   -1.0216591
H    -0.6541356   -1.2535051   -1.3462847
C     0.4494193   -3.0628597   -1.3413779
H    -0.3083162   -3.5944309   -1.9054060
C     1.6251726   -3.7207967   -0.9552541
H     1.7670048   -4.7687404   -1.1927019
C     2.6109872   -3.0144177   -0.3183050
H     3.5525612   -3.4902813   -0.0646367
Bq         4.5787742717    -2.5347837628     0.4401953804
Bq         4.5769287464    -2.4852924158     0.4470656502
Bq         4.5750832212    -2.4358010688     0.4539359200
Bq         4.5732376959    -2.3863097218     0.4608061897
Bq         4.5713921706    -2.3368183748     0.4676764595
Bq         4.5695466454    -2.2873270277     0.4745467293
Bq         4.5677011201    -2.2378356807     0.4814169991
Bq         4.5658555948    -2.1883443337     0.4882872689
Bq         4.5640100696    -2.1388529867     0.4951575386
Bq         4.5621645443    -2.0893616397     0.5020278084
Bq         4.5603190190    -2.0398702926     0.5088980782
Bq         4.5584734937    -1.9903789456     0.5157683480
Bq         4.5566279685    -1.9408875986     0.5226386178
Bq         4.5547824432    -1.8913962516     0.5295088875
Bq         4.5529369179    -1.8419049046     0.5363791573
Bq         4.5510913927    -1.7924135576     0.5432494271
Bq         4.5492458674    -1.7429222105     0.5501196969
Bq         4.5474003421    -1.6934308635     0.5569899666
Bq         4.5455548169    -1.6439395165     0.5638602364
Bq         4.5437092916    -1.5944481695     0.5707305062
Bq         4.5418637663    -1.5449568225     0.5776007760
Bq         4.5400182411    -1.4954654754     0.5844710458
Bq         4.5381727158    -1.4459741284     0.5913413155
Bq         4.5363271905    -1.3964827814     0.5982115853
Bq         4.5344816653    -1.3469914344     0.6050818551
Bq         4.5326361400    -1.2975000874     0.6119521249
Bq         4.5307906147    -1.2480087404     0.6188223947
Bq         4.5289450895    -1.1985173933     0.6256926644
Bq         4.5270995642    -1.1490260463     0.6325629342
Bq         4.5252540389    -1.0995346993     0.6394332040
Bq         4.5234085137    -1.0500433523     0.6463034738
Bq         4.5215629884    -1.0005520053     0.6531737436
Bq         4.5197174631    -0.9510606583     0.6600440133
Bq         4.5178719379    -0.9015693112     0.6669142831
Bq         4.5160264126    -0.8520779642     0.6737845529
Bq         4.5141808873    -0.8025866172     0.6806548227
Bq         4.5123353621    -0.7530952702     0.6875250925
Bq         4.5104898368    -0.7036039232     0.6943953622
Bq         4.5086443115    -0.6541125761     0.7012656320
Bq         4.5067987863    -0.6046212291     0.7081359018
Bq         4.5049532610    -0.5551298821     0.7150061716
Bq         4.5031077357    -0.5056385351     0.7218764414
Bq         4.5012622105    -0.4561471881     0.7287467111
Bq         4.4994166852    -0.4066558411     0.7356169809
Bq         4.4975711599    -0.3571644940     0.7424872507
Bq         4.4957256346    -0.3076731470     0.7493575205
Bq         4.4938801094    -0.2581818000     0.7562277903
Bq         4.4920345841    -0.2086904530     0.7630980600
Bq         4.4901890588    -0.1591991060     0.7699683298
Bq         4.4883435336    -0.1097077589     0.7768385996
Bq         4.4864980083    -0.0602164119     0.7837088694
Bq         4.4846524830    -0.0107250649     0.7905791391
Bq         4.4828069578     0.0387662821     0.7974494089
Bq         4.4809614325     0.0882576291     0.8043196787
Bq         4.4791159072     0.1377489761     0.8111899485
Bq         4.4772703820     0.1872403232     0.8180602183
Bq         4.4754248567     0.2367316702     0.8249304880
Bq         4.4735793314     0.2862230172     0.8318007578
Bq         4.4717338062     0.3357143642     0.8386710276
Bq         4.4698882809     0.3852057112     0.8455412974
Bq         4.4680427556     0.4346970583     0.8524115672
Bq         4.4661972304     0.4841884053     0.8592818369
Bq         4.4643517051     0.5336797523     0.8661521067
Bq         4.4625061798     0.5831710993     0.8730223765
Bq         4.4606606546     0.6326624463     0.8798926463
Bq         4.4588151293     0.6821537933     0.8867629161
Bq         4.4569696040     0.7316451404     0.8936331858
Bq         4.4551240788     0.7811364874     0.9005034556
Bq         4.4532785535     0.8306278344     0.9073737254
Bq         4.4514330282     0.8801191814     0.9142439952
Bq         4.4495875030     0.9296105284     0.9211142650
Bq         4.4477419777     0.9791018754     0.9279845347
Bq         4.4458964524     1.0285932225     0.9348548045
Bq         4.4440509272     1.0780845695     0.9417250743
Bq         4.4422054019     1.1275759165     0.9485953441
Bq         4.4403598766     1.1770672635     0.9554656139
Bq         4.4385143513     1.2265586105     0.9623358836
Bq         4.4366688261     1.2760499576     0.9692061534
Bq         4.4348233008     1.3255413046     0.9760764232
Bq         4.4329777755     1.3750326516     0.9829466930
Bq         4.4311322503     1.4245239986     0.9898169628
Bq         4.4292867250     1.4740153456     0.9966872325
Bq         4.4274411997     1.5235066926     1.0035575023
Bq         4.4255956745     1.5729980397     1.0104277721
Bq         4.4237501492     1.6224893867     1.0172980419
Bq         4.4219046239     1.6719807337     1.0241683117
Bq         4.4200590987     1.7214720807     1.0310385814
Bq         4.4182135734     1.7709634277     1.0379088512
Bq         4.4163680481     1.8204547748     1.0447791210
Bq         4.4145225229     1.8699461218     1.0516493908
Bq         4.4126769976     1.9194374688     1.0585196605
Bq         4.4108314723     1.9689288158     1.0653899303
Bq         4.4089859471     2.0184201628     1.0722602001
Bq         4.4071404218     2.0679115098     1.0791304699
Bq         4.4052948965     2.1174028569     1.0860007397
Bq         4.4034493713     2.1668942039     1.0928710094
Bq         4.4016038460     2.2163855509     1.0997412792
Bq         4.6344444978    -2.7327491509     0.4256856922
Bq         4.6325989725    -2.6832578039     0.4325559620
Bq         4.6307534473    -2.6337664569     0.4394262317
Bq         4.6289079220    -2.5842751098     0.4462965015
Bq         4.6270623967    -2.5347837628     0.4531667713
Bq         4.6252168714    -2.4852924158     0.4600370411
Bq         4.6233713462    -2.4358010688     0.4669073109
Bq         4.6215258209    -2.3863097218     0.4737775806
Bq         4.6196802956    -2.3368183748     0.4806478504
Bq         4.6178347704    -2.2873270277     0.4875181202
Bq         4.6159892451    -2.2378356807     0.4943883900
Bq         4.6141437198    -2.1883443337     0.5012586597
Bq         4.6122981946    -2.1388529867     0.5081289295
Bq         4.6104526693    -2.0893616397     0.5149991993
Bq         4.6086071440    -2.0398702926     0.5218694691
Bq         4.6067616188    -1.9903789456     0.5287397389
Bq         4.6049160935    -1.9408875986     0.5356100086
Bq         4.6030705682    -1.8913962516     0.5424802784
Bq         4.6012250430    -1.8419049046     0.5493505482
Bq         4.5993795177    -1.7924135576     0.5562208180
Bq         4.5975339924    -1.7429222105     0.5630910878
Bq         4.5956884672    -1.6934308635     0.5699613575
Bq         4.5938429419    -1.6439395165     0.5768316273
Bq         4.5919974166    -1.5944481695     0.5837018971
Bq         4.5901518914    -1.5449568225     0.5905721669
Bq         4.5883063661    -1.4954654754     0.5974424367
Bq         4.5864608408    -1.4459741284     0.6043127064
Bq         4.5846153156    -1.3964827814     0.6111829762
Bq         4.5827697903    -1.3469914344     0.6180532460
Bq         4.5809242650    -1.2975000874     0.6249235158
Bq         4.5790787398    -1.2480087404     0.6317937856
Bq         4.5772332145    -1.1985173933     0.6386640553
Bq         4.5753876892    -1.1490260463     0.6455343251
Bq         4.5735421640    -1.0995346993     0.6524045949
Bq         4.5716966387    -1.0500433523     0.6592748647
Bq         4.5698511134    -1.0005520053     0.6661451345
Bq         4.5680055882    -0.9510606583     0.6730154042
Bq         4.5661600629    -0.9015693112     0.6798856740
Bq         4.5643145376    -0.8520779642     0.6867559438
Bq         4.5624690123    -0.8025866172     0.6936262136
Bq         4.5606234871    -0.7530952702     0.7004964834
Bq         4.5587779618    -0.7036039232     0.7073667531
Bq         4.5569324365    -0.6541125761     0.7142370229
Bq         4.5550869113    -0.6046212291     0.7211072927
Bq         4.5532413860    -0.5551298821     0.7279775625
Bq         4.5513958607    -0.5056385351     0.7348478322
Bq         4.5495503355    -0.4561471881     0.7417181020
Bq         4.5477048102    -0.4066558411     0.7485883718
Bq         4.5458592849    -0.3571644940     0.7554586416
Bq         4.5440137597    -0.3076731470     0.7623289114
Bq         4.5421682344    -0.2581818000     0.7691991811
Bq         4.5403227091    -0.2086904530     0.7760694509
Bq         4.5384771839    -0.1591991060     0.7829397207
Bq         4.5366316586    -0.1097077589     0.7898099905
Bq         4.5347861333    -0.0602164119     0.7966802603
Bq         4.5329406081    -0.0107250649     0.8035505300
Bq         4.5310950828     0.0387662821     0.8104207998
Bq         4.5292495575     0.0882576291     0.8172910696
Bq         4.5274040323     0.1377489761     0.8241613394
Bq         4.5255585070     0.1872403232     0.8310316092
Bq         4.5237129817     0.2367316702     0.8379018789
Bq         4.5218674565     0.2862230172     0.8447721487
Bq         4.5200219312     0.3357143642     0.8516424185
Bq         4.5181764059     0.3852057112     0.8585126883
Bq         4.5163308807     0.4346970583     0.8653829581
Bq         4.5144853554     0.4841884053     0.8722532278
Bq         4.5126398301     0.5336797523     0.8791234976
Bq         4.5107943049     0.5831710993     0.8859937674
Bq         4.5089487796     0.6326624463     0.8928640372
Bq         4.5071032543     0.6821537933     0.8997343070
Bq         4.5052577290     0.7316451404     0.9066045767
Bq         4.5034122038     0.7811364874     0.9134748465
Bq         4.5015666785     0.8306278344     0.9203451163
Bq         4.4997211532     0.8801191814     0.9272153861
Bq         4.4978756280     0.9296105284     0.9340856559
Bq         4.4960301027     0.9791018754     0.9409559256
Bq         4.4941845774     1.0285932225     0.9478261954
Bq         4.4923390522     1.0780845695     0.9546964652
Bq         4.4904935269     1.1275759165     0.9615667350
Bq         4.4886480016     1.1770672635     0.9684370048
Bq         4.4868024764     1.2265586105     0.9753072745
Bq         4.4849569511     1.2760499576     0.9821775443
Bq         4.4831114258     1.3255413046     0.9890478141
Bq         4.4812659006     1.3750326516     0.9959180839
Bq         4.4794203753     1.4245239986     1.0027883536
Bq         4.4775748500     1.4740153456     1.0096586234
Bq         4.4757293248     1.5235066926     1.0165288932
Bq         4.4738837995     1.5729980397     1.0233991630
Bq         4.4720382742     1.6224893867     1.0302694328
Bq         4.4701927490     1.6719807337     1.0371397025
Bq         4.4683472237     1.7214720807     1.0440099723
Bq         4.4665016984     1.7709634277     1.0508802421
Bq         4.4646561732     1.8204547748     1.0577505119
Bq         4.4628106479     1.8699461218     1.0646207817
Bq         4.4609651226     1.9194374688     1.0714910514
Bq         4.4591195974     1.9689288158     1.0783613212
Bq         4.4572740721     2.0184201628     1.0852315910
Bq         4.4554285468     2.0679115098     1.0921018608
Bq         4.4535830216     2.1174028569     1.0989721306
Bq         4.4517374963     2.1668942039     1.1058424003
Bq         4.4498919710     2.2163855509     1.1127126701
Bq         4.6827326228    -2.7327491509     0.4386570831
Bq         4.6808870975    -2.6832578039     0.4455273528

1
2
3
4
5
6
7
8
9
10
11
12
13
14
15
16
17
18
19
20
21
22
23
24
25
26
27
28
29
30
31
32
33
34
35
36
37
38
39
40
41
42
43
44
45
46
47
48
49
50
51
52
53
54
55
56
57
58
59
60
61
62
63
64
65
66
67
68
69
70
71
72
73
74
75
76
77
78
79
80
81
82
83
84
85
86
87
88
89
90
91
92
93
94
95
96
97
98
99
100
101
102
103
104
105
106
107
108
109
110
111
112
113
114
115
116
117
118
119
120
121
122
123
124
125
126
127
128
129
130
131
132
133
134
135
136
137
138
139
140
141
142
143
144
145
146
147
148
149
150
151
152
153
154
155
156
157
158
159
160
161
162
163
164
165
166
167
168
169
170
171
172
173
174
175
176
177
178
179
180
181
182
183
184
185
186
187
188
189
190
191
192
193
194
195
196
197
198
199
200
201
202
203
204
205
206
207
208
209
210
211
212
213
214
215
216
217
218
219
220
221
222
223
224
225
226
227
228
229
230
231
232
233
234
235
236

