%nproc=8
%mem=1000MB
# rb3lyp/6-311+g** NMR geom=connectivity

Title

0 1
C    -4.0500558   -0.5771862    0.8136712
H    -5.0263804   -1.0082727    1.0024760
C    -3.9381552    0.6617804    0.2400876
H    -4.8252424    1.2338890   -0.0111295
C    -2.6768410    1.2433246    0.0057578
C    -1.4974121    0.5051527    0.2848253
C    -1.6508332   -0.7338728    0.9404026
H    -0.7713646   -1.2730967    1.2633753
C    -2.8898548   -1.2624035    1.1994307
H    -2.9683706   -2.2124563    1.7152676
C    -2.5773185    2.5963696   -0.4192930
H    -3.4870728    3.1412239   -0.6474055
C    -1.3741895    3.2147896   -0.4364030
H    -1.2997315    4.2742019   -0.6578144
C    -0.1719488    2.4994090   -0.1734588
C    -0.2043917    1.1018437    0.0192689
C     1.0513491    3.2042560   -0.0676222
H     1.0427344    4.2819499   -0.1896997
C     2.1942091    2.5487446    0.2579577
H     3.1168527    3.0912848    0.4334727
C     2.2216473    1.1336562    0.2934990
C     1.0486931    0.3945528    0.0302412
C     3.4483363    0.4614633    0.5573939
H     4.3095794    1.0606054    0.8334846
C     3.5427346   -0.8855926    0.4749463
H     4.4731467   -1.3939704    0.7038822
C     2.4490052   -1.6474447   -0.0196319
C     1.2150704   -1.0057258   -0.3013573
C     0.2531113   -1.7434440   -1.0216591
H    -0.6541356   -1.2535051   -1.3462847
C     0.4494193   -3.0628597   -1.3413779
H    -0.3083162   -3.5944309   -1.9054060
C     1.6251726   -3.7207967   -0.9552541
H     1.7670048   -4.7687404   -1.1927019
C     2.6109872   -3.0144177   -0.3183050
H     3.5525612   -3.4902813   -0.0646367
Bq         2.9384274200    -0.1838405909     0.4398355108
Bq         2.9387834870    -0.1339009832     0.4374047084
Bq         2.9391395539    -0.0839613755     0.4349739061
Bq         2.9394956209    -0.0340217678     0.4325431037
Bq         2.9398516879     0.0159178399     0.4301123013
Bq         2.9402077548     0.0658574476     0.4276814989
Bq         2.9405638218     0.1157970553     0.4252506965
Bq         2.9409198888     0.1657366629     0.4228198941
Bq         2.9412759558     0.2156762706     0.4203890918
Bq         2.9416320227     0.2656158783     0.4179582894
Bq         2.9419880897     0.3155554860     0.4155274870
Bq         2.9423441567     0.3654950937     0.4130966846
Bq         2.9427002236     0.4154347014     0.4106658822
Bq         2.9430562906     0.4653743091     0.4082350798
Bq         2.9434123576     0.5153139168     0.4058042775
Bq         2.9437684246     0.5652535245     0.4033734751
Bq         2.9441244915     0.6151931321     0.4009426727
Bq         2.9444805585     0.6651327398     0.3985118703
Bq         2.9448366255     0.7150723475     0.3960810679
Bq         2.9451926924     0.7650119552     0.3936502655
Bq         2.9455487594     0.8149515629     0.3912194632
Bq         2.9459048264     0.8648911706     0.3887886608
Bq         2.9462608934     0.9148307783     0.3863578584
Bq         2.9466169603     0.9647703860     0.3839270560
Bq         2.9469730273     1.0147099936     0.3814962536
Bq         2.9473290943     1.0646496013     0.3790654512
Bq         2.9476851612     1.1145892090     0.3766346489
Bq         2.9480412282     1.1645288167     0.3742038465
Bq         2.9483972952     1.2144684244     0.3717730441
Bq         2.9487533621     1.2644080321     0.3693422417
Bq         2.9491094291     1.3143476398     0.3669114393
Bq         2.9494654961     1.3642872475     0.3644806369
Bq         2.9498215631     1.4142268552     0.3620498346
Bq         2.9501776300     1.4641664628     0.3596190322
Bq         2.9505336970     1.5141060705     0.3571882298
Bq         2.9508897640     1.5640456782     0.3547574274
Bq         2.9512458309     1.6139852859     0.3523266250
Bq         2.9516018979     1.6639248936     0.3498958226
Bq         2.9519579649     1.7138645013     0.3474650203
Bq         2.9523140319     1.7638041090     0.3450342179
Bq         2.9526700988     1.8137437167     0.3426034155
Bq         2.9530261658     1.8636833244     0.3401726131
Bq         2.9533822328     1.9136229320     0.3377418107
Bq         2.9537382997     1.9635625397     0.3353110083
Bq         2.9540943667     2.0135021474     0.3328802060
Bq         2.9544504337     2.0634417551     0.3304494036
Bq         2.9548065007     2.1133813628     0.3280186012
Bq         2.9551625676     2.1633209705     0.3255877988
Bq         2.9555186346     2.2132605782     0.3231569964
Bq         2.9558747016     2.2632001859     0.3207261940
Bq         2.9562307685     2.3131397936     0.3182953917
Bq         2.9565868355     2.3630794012     0.3158645893
Bq         2.9569429025     2.4130190089     0.3134337869
Bq         2.9572989694     2.4629586166     0.3110029845
Bq         2.9576550364     2.5128982243     0.3085721821
Bq         2.9580111034     2.5628378320     0.3061413797
Bq         2.9583671704     2.6127774397     0.3037105774
Bq         2.9587232373     2.6627170474     0.3012797750
Bq         2.9590793043     2.7126566551     0.2988489726
Bq         2.9594353713     2.7625962627     0.2964181702
Bq         2.9597914382     2.8125358704     0.2939873678
Bq         2.9601475052     2.8624754781     0.2915565654
Bq         2.9605035722     2.9124150858     0.2891257631
Bq         2.9608596392     2.9623546935     0.2866949607
Bq         2.9612157061     3.0122943012     0.2842641583
Bq         2.9615717731     3.0622339089     0.2818333559
Bq         2.9619278401     3.1121735166     0.2794025535
Bq         2.9622839070     3.1621131243     0.2769717511
Bq         2.9626399740     3.2120527319     0.2745409488
Bq         2.9629960410     3.2619923396     0.2721101464
Bq         2.9633521080     3.3119319473     0.2696793440
Bq         2.9637081749     3.3618715550     0.2672485416
Bq         2.9640642419     3.4118111627     0.2648177392
Bq         2.9644203089     3.4617507704     0.2623869368
Bq         2.9647763758     3.5116903781     0.2599561345
Bq         2.9651324428     3.5616299858     0.2575253321
Bq         2.9654885098     3.6115695935     0.2550945297
Bq         2.9658445767     3.6615092011     0.2526637273
Bq         2.9662006437     3.7114488088     0.2502329249
Bq         2.9665567107     3.7613884165     0.2478021225
Bq         2.9669127777     3.8113280242     0.2453713202
Bq         2.9672688446     3.8612676319     0.2429405178
Bq         2.9676249116     3.9112072396     0.2405097154
Bq         2.9679809786     3.9611468473     0.2380789130
Bq         2.9683370455     4.0110864550     0.2356481106
Bq         2.9686931125     4.0610260627     0.2332173082
Bq         2.9690491795     4.1109656703     0.2307865059
Bq         2.9694052465     4.1609052780     0.2283557035
Bq         2.9697613134     4.2108448857     0.2259249011
Bq         2.9701173804     4.2607844934     0.2234940987
Bq         2.9704734474     4.3107241011     0.2210632963
Bq         2.9843388122    -0.6832366678     0.4713902641
Bq         2.9846948792    -0.6332970601     0.4689594617
Bq         2.9850509462    -0.5833574524     0.4665286593
Bq         2.9854070131    -0.5334178447     0.4640978570
Bq         2.9857630801    -0.4834782370     0.4616670546
Bq         2.9861191471    -0.4335386293     0.4592362522
Bq         2.9864752140    -0.3835990216     0.4568054498
Bq         2.9868312810    -0.3336594139     0.4543746474
Bq         2.9871873480    -0.2837198063     0.4519438450
Bq         2.9875434150    -0.2337801986     0.4495130427
Bq         2.9878994819    -0.1838405909     0.4470822403
Bq         2.9882555489    -0.1339009832     0.4446514379
Bq         2.9886116159    -0.0839613755     0.4422206355
Bq         2.9889676828    -0.0340217678     0.4397898331
Bq         2.9893237498     0.0159178399     0.4373590307
Bq         2.9896798168     0.0658574476     0.4349282284
Bq         2.9900358838     0.1157970553     0.4324974260
Bq         2.9903919507     0.1657366629     0.4300666236
Bq         2.9907480177     0.2156762706     0.4276358212
Bq         2.9911040847     0.2656158783     0.4252050188
Bq         2.9914601516     0.3155554860     0.4227742164
Bq         2.9918162186     0.3654950937     0.4203434141
Bq         2.9921722856     0.4154347014     0.4179126117
Bq         2.9925283526     0.4653743091     0.4154818093
Bq         2.9928844195     0.5153139168     0.4130510069
Bq         2.9932404865     0.5652535245     0.4106202045
Bq         2.9935965535     0.6151931321     0.4081894021
Bq         2.9939526204     0.6651327398     0.4057585998
Bq         2.9943086874     0.7150723475     0.4033277974
Bq         2.9946647544     0.7650119552     0.4008969950
Bq         2.9950208213     0.8149515629     0.3984661926
Bq         2.9953768883     0.8648911706     0.3960353902
Bq         2.9957329553     0.9148307783     0.3936045878
Bq         2.9960890223     0.9647703860     0.3911737855
Bq         2.9964450892     1.0147099936     0.3887429831
Bq         2.9968011562     1.0646496013     0.3863121807
Bq         2.9971572232     1.1145892090     0.3838813783
Bq         2.9975132901     1.1645288167     0.3814505759
Bq         2.9978693571     1.2144684244     0.3790197735
Bq         2.9982254241     1.2644080321     0.3765889712
Bq         2.9985814911     1.3143476398     0.3741581688
Bq         2.9989375580     1.3642872475     0.3717273664
Bq         2.9992936250     1.4142268552     0.3692965640
Bq         2.9996496920     1.4641664628     0.3668657616
Bq         3.0000057589     1.5141060705     0.3644349592
Bq         3.0003618259     1.5640456782     0.3620041569
Bq         3.0007178929     1.6139852859     0.3595733545
Bq         3.0010739599     1.6639248936     0.3571425521
Bq         3.0014300268     1.7138645013     0.3547117497
Bq         3.0017860938     1.7638041090     0.3522809473
Bq         3.0021421608     1.8137437167     0.3498501449
Bq         3.0024982277     1.8636833244     0.3474193426
Bq         3.0028542947     1.9136229320     0.3449885402
Bq         3.0032103617     1.9635625397     0.3425577378
Bq         3.0035664286     2.0135021474     0.3401269354
Bq         3.0039224956     2.0634417551     0.3376961330
Bq         3.0042785626     2.1133813628     0.3352653306
Bq         3.0046346296     2.1633209705     0.3328345283
Bq         3.0049906965     2.2132605782     0.3304037259
Bq         3.0053467635     2.2632001859     0.3279729235
Bq         3.0057028305     2.3131397936     0.3255421211
Bq         3.0060588974     2.3630794012     0.3231113187
Bq         3.0064149644     2.4130190089     0.3206805163
Bq         3.0067710314     2.4629586166     0.3182497140
Bq         3.0071270984     2.5128982243     0.3158189116
Bq         3.0074831653     2.5628378320     0.3133881092
Bq         3.0078392323     2.6127774397     0.3109573068
Bq         3.0081952993     2.6627170474     0.3085265044
Bq         3.0085513662     2.7126566551     0.3060957020
Bq         3.0089074332     2.7625962627     0.3036648997
Bq         3.0092635002     2.8125358704     0.3012340973
Bq         3.0096195672     2.8624754781     0.2988032949
Bq         3.0099756341     2.9124150858     0.2963724925
Bq         3.0103317011     2.9623546935     0.2939416901
Bq         3.0106877681     3.0122943012     0.2915108877
Bq         3.0110438350     3.0622339089     0.2890800854
Bq         3.0113999020     3.1121735166     0.2866492830
Bq         3.0117559690     3.1621131243     0.2842184806
Bq         3.0121120359     3.2120527319     0.2817876782
Bq         3.0124681029     3.2619923396     0.2793568758
Bq         3.0128241699     3.3119319473     0.2769260734
Bq         3.0131802369     3.3618715550     0.2744952711
Bq         3.0135363038     3.4118111627     0.2720644687
Bq         3.0138923708     3.4617507704     0.2696336663
Bq         3.0142484378     3.5116903781     0.2672028639
Bq         3.0146045047     3.5616299858     0.2647720615
Bq         3.0149605717     3.6115695935     0.2623412591
Bq         3.0153166387     3.6615092011     0.2599104568
Bq         3.0156727057     3.7114488088     0.2574796544
Bq         3.0160287726     3.7613884165     0.2550488520
Bq         3.0163848396     3.8113280242     0.2526180496
Bq         3.0167409066     3.8612676319     0.2501872472
Bq         3.0170969735     3.9112072396     0.2477564449
Bq         3.0174530405     3.9611468473     0.2453256425
Bq         3.0178091075     4.0110864550     0.2428948401
Bq         3.0181651745     4.0610260627     0.2404640377
Bq         3.0185212414     4.1109656703     0.2380332353
Bq         3.0188773084     4.1609052780     0.2356024329
Bq         3.0192333754     4.2108448857     0.2331716306
Bq         3.0195894423     4.2607844934     0.2307408282
Bq         3.0199455093     4.3107241011     0.2283100258
Bq         3.0338108742    -0.6832366678     0.4786369936
Bq         3.0341669411    -0.6332970601     0.4762061912
Bq         3.0345230081    -0.5833574524     0.4737753888
Bq         3.0348790751    -0.5334178447     0.4713445864
Bq         3.0352351420    -0.4834782370     0.4689137840
Bq         3.0355912090    -0.4335386293     0.4664829816
Bq         3.0359472760    -0.3835990216     0.4640521793
Bq         3.0363033430    -0.3336594139     0.4616213769

1
2
3
4
5
6
7
8
9
10
11
12
13
14
15
16
17
18
19
20
21
22
23
24
25
26
27
28
29
30
31
32
33
34
35
36
37
38
39
40
41
42
43
44
45
46
47
48
49
50
51
52
53
54
55
56
57
58
59
60
61
62
63
64
65
66
67
68
69
70
71
72
73
74
75
76
77
78
79
80
81
82
83
84
85
86
87
88
89
90
91
92
93
94
95
96
97
98
99
100
101
102
103
104
105
106
107
108
109
110
111
112
113
114
115
116
117
118
119
120
121
122
123
124
125
126
127
128
129
130
131
132
133
134
135
136
137
138
139
140
141
142
143
144
145
146
147
148
149
150
151
152
153
154
155
156
157
158
159
160
161
162
163
164
165
166
167
168
169
170
171
172
173
174
175
176
177
178
179
180
181
182
183
184
185
186
187
188
189
190
191
192
193
194
195
196
197
198
199
200
201
202
203
204
205
206
207
208
209
210
211
212
213
214
215
216
217
218
219
220
221
222
223
224
225
226
227
228
229
230
231
232
233
234
235
236

