%nproc=8
%mem=1000MB
# rb3lyp/6-311+g** NMR geom=connectivity

Title

0 1
C    -4.0500558   -0.5771862    0.8136712
H    -5.0263804   -1.0082727    1.0024760
C    -3.9381552    0.6617804    0.2400876
H    -4.8252424    1.2338890   -0.0111295
C    -2.6768410    1.2433246    0.0057578
C    -1.4974121    0.5051527    0.2848253
C    -1.6508332   -0.7338728    0.9404026
H    -0.7713646   -1.2730967    1.2633753
C    -2.8898548   -1.2624035    1.1994307
H    -2.9683706   -2.2124563    1.7152676
C    -2.5773185    2.5963696   -0.4192930
H    -3.4870728    3.1412239   -0.6474055
C    -1.3741895    3.2147896   -0.4364030
H    -1.2997315    4.2742019   -0.6578144
C    -0.1719488    2.4994090   -0.1734588
C    -0.2043917    1.1018437    0.0192689
C     1.0513491    3.2042560   -0.0676222
H     1.0427344    4.2819499   -0.1896997
C     2.1942091    2.5487446    0.2579577
H     3.1168527    3.0912848    0.4334727
C     2.2216473    1.1336562    0.2934990
C     1.0486931    0.3945528    0.0302412
C     3.4483363    0.4614633    0.5573939
H     4.3095794    1.0606054    0.8334846
C     3.5427346   -0.8855926    0.4749463
H     4.4731467   -1.3939704    0.7038822
C     2.4490052   -1.6474447   -0.0196319
C     1.2150704   -1.0057258   -0.3013573
C     0.2531113   -1.7434440   -1.0216591
H    -0.6541356   -1.2535051   -1.3462847
C     0.4494193   -3.0628597   -1.3413779
H    -0.3083162   -3.5944309   -1.9054060
C     1.6251726   -3.7207967   -0.9552541
H     1.7670048   -4.7687404   -1.1927019
C     2.6109872   -3.0144177   -0.3183050
H     3.5525612   -3.4902813   -0.0646367
Bq         3.7355428704    -4.5828200357    -0.2865110889
Bq         3.7300396338    -4.5346235444    -0.2743944637
Bq         3.7245363971    -4.4864270530    -0.2622778384
Bq         3.7190331604    -4.4382305616    -0.2501612132
Bq         3.7135299237    -4.3900340703    -0.2380445880
Bq         3.7080266870    -4.3418375789    -0.2259279628
Bq         3.7025234503    -4.2936410876    -0.2138113375
Bq         3.6970202136    -4.2454445962    -0.2016947123
Bq         3.6915169770    -4.1972481049    -0.1895780871
Bq         3.6860137403    -4.1490516135    -0.1774614618
Bq         3.6805105036    -4.1008551222    -0.1653448366
Bq         3.6750072669    -4.0526586308    -0.1532282114
Bq         3.6695040302    -4.0044621394    -0.1411115861
Bq         3.6640007935    -3.9562656481    -0.1289949609
Bq         3.6584975568    -3.9080691567    -0.1168783357
Bq         3.6529943202    -3.8598726654    -0.1047617105
Bq         3.6474910835    -3.8116761740    -0.0926450852
Bq         3.6419878468    -3.7634796827    -0.0805284600
Bq         3.6364846101    -3.7152831913    -0.0684118348
Bq         3.6309813734    -3.6670866999    -0.0562952095
Bq         3.6254781367    -3.6188902086    -0.0441785843
Bq         3.6199749000    -3.5706937172    -0.0320619591
Bq         3.6144716634    -3.5224972259    -0.0199453339
Bq         3.6089684267    -3.4743007345    -0.0078287086
Bq         3.6034651900    -3.4261042432     0.0042879166
Bq         3.5979619533    -3.3779077518     0.0164045418
Bq         3.5924587166    -3.3297112605     0.0285211671
Bq         3.5869554799    -3.2815147691     0.0406377923
Bq         3.5814522432    -3.2333182777     0.0527544175
Bq         3.5759490066    -3.1851217864     0.0648710427
Bq         3.5704457699    -3.1369252950     0.0769876680
Bq         3.5649425332    -3.0887288037     0.0891042932
Bq         3.5594392965    -3.0405323123     0.1012209184
Bq         3.5539360598    -2.9923358210     0.1133375437
Bq         3.5484328231    -2.9441393296     0.1254541689
Bq         3.5429295864    -2.8959428383     0.1375707941
Bq         3.5374263497    -2.8477463469     0.1496874193
Bq         3.5319231131    -2.7995498555     0.1618040446
Bq         3.5264198764    -2.7513533642     0.1739206698
Bq         3.5209166397    -2.7031568728     0.1860372950
Bq         3.5154134030    -2.6549603815     0.1981539203
Bq         3.5099101663    -2.6067638901     0.2102705455
Bq         3.5044069296    -2.5585673988     0.2223871707
Bq         3.4989036929    -2.5103709074     0.2345037960
Bq         3.4934004563    -2.4621744160     0.2466204212
Bq         3.4878972196    -2.4139779247     0.2587370464
Bq         3.4823939829    -2.3657814333     0.2708536716
Bq         3.4768907462    -2.3175849420     0.2829702969
Bq         3.4713875095    -2.2693884506     0.2950869221
Bq         3.4658842728    -2.2211919593     0.3072035473
Bq         3.4603810361    -2.1729954679     0.3193201726
Bq         3.4548777995    -2.1247989766     0.3314367978
Bq         3.4493745628    -2.0766024852     0.3435534230
Bq         3.4438713261    -2.0284059938     0.3556700482
Bq         3.4383680894    -1.9802095025     0.3677866735
Bq         3.4328648527    -1.9320130111     0.3799032987
Bq         3.4273616160    -1.8838165198     0.3920199239
Bq         3.4218583793    -1.8356200284     0.4041365492
Bq         3.4163551427    -1.7874235371     0.4162531744
Bq         3.4108519060    -1.7392270457     0.4283697996
Bq         3.4053486693    -1.6910305543     0.4404864248
Bq         3.3998454326    -1.6428340630     0.4526030501
Bq         3.3943421959    -1.5946375716     0.4647196753
Bq         3.3888389592    -1.5464410803     0.4768363005
Bq         3.3833357225    -1.4982445889     0.4889529258
Bq         3.3778324859    -1.4500480976     0.5010695510
Bq         3.3723292492    -1.4018516062     0.5131861762
Bq         3.3668260125    -1.3536551149     0.5253028014
Bq         3.3613227758    -1.3054586235     0.5374194267
Bq         3.3558195391    -1.2572621321     0.5495360519
Bq         3.3503163024    -1.2090656408     0.5616526771
Bq         3.3448130657    -1.1608691494     0.5737693024
Bq         3.3393098290    -1.1126726581     0.5858859276
Bq         3.3338065924    -1.0644761667     0.5980025528
Bq         3.3283033557    -1.0162796754     0.6101191781
Bq         3.3228001190    -0.9680831840     0.6222358033
Bq         3.3172968823    -0.9198866927     0.6343524285
Bq         3.3117936456    -0.8716902013     0.6464690537
Bq         3.3062904089    -0.8234937099     0.6585856790
Bq         3.3007871722    -0.7752972186     0.6707023042
Bq         3.2952839356    -0.7271007272     0.6828189294
Bq         3.2897806989    -0.6789042359     0.6949355547
Bq         3.2842774622    -0.6307077445     0.7070521799
Bq         3.2787742255    -0.5825112532     0.7191688051
Bq         3.2732709888    -0.5343147618     0.7312854303
Bq         3.2677677521    -0.4861182704     0.7434020556
Bq         3.2622645154    -0.4379217791     0.7555186808
Bq         3.2567612788    -0.3897252877     0.7676353060
Bq         3.2512580421    -0.3415287964     0.7797519313
Bq         3.2457548054    -0.2933323050     0.7918685565
Bq         3.2402515687    -0.2451358137     0.8039851817
Bq         3.2347483320    -0.1969393223     0.8161018069
Bq         3.2292450953    -0.1487428310     0.8282184322
Bq         3.2237418586    -0.1005463396     0.8403350574
Bq         3.2182386220    -0.0523498482     0.8524516826
Bq         3.2127353853    -0.0041533569     0.8645683079
Bq         3.2072321486     0.0440431345     0.8766849331
Bq         3.8030802538    -4.7756060011    -0.3143008960
Bq         3.7975770172    -4.7274095098    -0.3021842708
Bq         3.7920737805    -4.6792130184    -0.2900676455
Bq         3.7865705438    -4.6310165271    -0.2779510203
Bq         3.7810673071    -4.5828200357    -0.2658343951
Bq         3.7755640704    -4.5346235444    -0.2537177699
Bq         3.7700608337    -4.4864270530    -0.2416011446
Bq         3.7645575970    -4.4382305616    -0.2294845194
Bq         3.7590543604    -4.3900340703    -0.2173678942
Bq         3.7535511237    -4.3418375789    -0.2052512689
Bq         3.7480478870    -4.2936410876    -0.1931346437
Bq         3.7425446503    -4.2454445962    -0.1810180185
Bq         3.7370414136    -4.1972481049    -0.1689013932
Bq         3.7315381769    -4.1490516135    -0.1567847680
Bq         3.7260349402    -4.1008551222    -0.1446681428
Bq         3.7205317036    -4.0526586308    -0.1325515176
Bq         3.7150284669    -4.0044621394    -0.1204348923
Bq         3.7095252302    -3.9562656481    -0.1083182671
Bq         3.7040219935    -3.9080691567    -0.0962016419
Bq         3.6985187568    -3.8598726654    -0.0840850166
Bq         3.6930155201    -3.8116761740    -0.0719683914
Bq         3.6875122834    -3.7634796827    -0.0598517662
Bq         3.6820090468    -3.7152831913    -0.0477351410
Bq         3.6765058101    -3.6670866999    -0.0356185157
Bq         3.6710025734    -3.6188902086    -0.0235018905
Bq         3.6654993367    -3.5706937172    -0.0113852653
Bq         3.6599961000    -3.5224972259     0.0007313600
Bq         3.6544928633    -3.4743007345     0.0128479852
Bq         3.6489896266    -3.4261042432     0.0249646104
Bq         3.6434863900    -3.3779077518     0.0370812356
Bq         3.6379831533    -3.3297112605     0.0491978609
Bq         3.6324799166    -3.2815147691     0.0613144861
Bq         3.6269766799    -3.2333182777     0.0734311113
Bq         3.6214734432    -3.1851217864     0.0855477366
Bq         3.6159702065    -3.1369252950     0.0976643618
Bq         3.6104669698    -3.0887288037     0.1097809870
Bq         3.6049637331    -3.0405323123     0.1218976122
Bq         3.5994604965    -2.9923358210     0.1340142375
Bq         3.5939572598    -2.9441393296     0.1461308627
Bq         3.5884540231    -2.8959428383     0.1582474879
Bq         3.5829507864    -2.8477463469     0.1703641132
Bq         3.5774475497    -2.7995498555     0.1824807384
Bq         3.5719443130    -2.7513533642     0.1945973636
Bq         3.5664410763    -2.7031568728     0.2067139888
Bq         3.5609378397    -2.6549603815     0.2188306141
Bq         3.5554346030    -2.6067638901     0.2309472393
Bq         3.5499313663    -2.5585673988     0.2430638645
Bq         3.5444281296    -2.5103709074     0.2551804898
Bq         3.5389248929    -2.4621744160     0.2672971150
Bq         3.5334216562    -2.4139779247     0.2794137402
Bq         3.5279184195    -2.3657814333     0.2915303655
Bq         3.5224151829    -2.3175849420     0.3036469907
Bq         3.5169119462    -2.2693884506     0.3157636159
Bq         3.5114087095    -2.2211919593     0.3278802411
Bq         3.5059054728    -2.1729954679     0.3399968664
Bq         3.5004022361    -2.1247989766     0.3521134916
Bq         3.4948989994    -2.0766024852     0.3642301168
Bq         3.4893957627    -2.0284059938     0.3763467421
Bq         3.4838925261    -1.9802095025     0.3884633673
Bq         3.4783892894    -1.9320130111     0.4005799925
Bq         3.4728860527    -1.8838165198     0.4126966177
Bq         3.4673828160    -1.8356200284     0.4248132430
Bq         3.4618795793    -1.7874235371     0.4369298682
Bq         3.4563763426    -1.7392270457     0.4490464934
Bq         3.4508731059    -1.6910305543     0.4611631187
Bq         3.4453698693    -1.6428340630     0.4732797439
Bq         3.4398666326    -1.5946375716     0.4853963691
Bq         3.4343633959    -1.5464410803     0.4975129943
Bq         3.4288601592    -1.4982445889     0.5096296196
Bq         3.4233569225    -1.4500480976     0.5217462448
Bq         3.4178536858    -1.4018516062     0.5338628700
Bq         3.4123504491    -1.3536551149     0.5459794953
Bq         3.4068472125    -1.3054586235     0.5580961205
Bq         3.4013439758    -1.2572621321     0.5702127457
Bq         3.3958407391    -1.2090656408     0.5823293709
Bq         3.3903375024    -1.1608691494     0.5944459962
Bq         3.3848342657    -1.1126726581     0.6065626214
Bq         3.3793310290    -1.0644761667     0.6186792466
Bq         3.3738277923    -1.0162796754     0.6307958719
Bq         3.3683245556    -0.9680831840     0.6429124971
Bq         3.3628213190    -0.9198866927     0.6550291223
Bq         3.3573180823    -0.8716902013     0.6671457476
Bq         3.3518148456    -0.8234937099     0.6792623728
Bq         3.3463116089    -0.7752972186     0.6913789980
Bq         3.3408083722    -0.7271007272     0.7034956232
Bq         3.3353051355    -0.6789042359     0.7156122485
Bq         3.3298018988    -0.6307077445     0.7277288737
Bq         3.3242986622    -0.5825112532     0.7398454989
Bq         3.3187954255    -0.5343147618     0.7519621242
Bq         3.3132921888    -0.4861182704     0.7640787494
Bq         3.3077889521    -0.4379217791     0.7761953746
Bq         3.3022857154    -0.3897252877     0.7883119998
Bq         3.2967824787    -0.3415287964     0.8004286251
Bq         3.2912792420    -0.2933323050     0.8125452503
Bq         3.2857760054    -0.2451358137     0.8246618755
Bq         3.2802727687    -0.1969393223     0.8367785008
Bq         3.2747695320    -0.1487428310     0.8488951260
Bq         3.2692662953    -0.1005463396     0.8610117512
Bq         3.2637630586    -0.0523498482     0.8731283764
Bq         3.2582598219    -0.0041533569     0.8852450017
Bq         3.2527565852     0.0440431345     0.8973616269
Bq         3.8486046905    -4.7756060011    -0.2936242022
Bq         3.8431014538    -4.7274095098    -0.2815075770

1
2
3
4
5
6
7
8
9
10
11
12
13
14
15
16
17
18
19
20
21
22
23
24
25
26
27
28
29
30
31
32
33
34
35
36
37
38
39
40
41
42
43
44
45
46
47
48
49
50
51
52
53
54
55
56
57
58
59
60
61
62
63
64
65
66
67
68
69
70
71
72
73
74
75
76
77
78
79
80
81
82
83
84
85
86
87
88
89
90
91
92
93
94
95
96
97
98
99
100
101
102
103
104
105
106
107
108
109
110
111
112
113
114
115
116
117
118
119
120
121
122
123
124
125
126
127
128
129
130
131
132
133
134
135
136
137
138
139
140
141
142
143
144
145
146
147
148
149
150
151
152
153
154
155
156
157
158
159
160
161
162
163
164
165
166
167
168
169
170
171
172
173
174
175
176
177
178
179
180
181
182
183
184
185
186
187
188
189
190
191
192
193
194
195
196
197
198
199
200
201
202
203
204
205
206
207
208
209
210
211
212
213
214
215
216
217
218
219
220
221
222
223
224
225
226
227
228
229
230
231
232
233
234
235
236

