%nproc=8
%mem=1000MB
# rb3lyp/6-311+g** NMR geom=connectivity

Title

0 1
C    -4.0500558   -0.5771862    0.8136712
H    -5.0263804   -1.0082727    1.0024760
C    -3.9381552    0.6617804    0.2400876
H    -4.8252424    1.2338890   -0.0111295
C    -2.6768410    1.2433246    0.0057578
C    -1.4974121    0.5051527    0.2848253
C    -1.6508332   -0.7338728    0.9404026
H    -0.7713646   -1.2730967    1.2633753
C    -2.8898548   -1.2624035    1.1994307
H    -2.9683706   -2.2124563    1.7152676
C    -2.5773185    2.5963696   -0.4192930
H    -3.4870728    3.1412239   -0.6474055
C    -1.3741895    3.2147896   -0.4364030
H    -1.2997315    4.2742019   -0.6578144
C    -0.1719488    2.4994090   -0.1734588
C    -0.2043917    1.1018437    0.0192689
C     1.0513491    3.2042560   -0.0676222
H     1.0427344    4.2819499   -0.1896997
C     2.1942091    2.5487446    0.2579577
H     3.1168527    3.0912848    0.4334727
C     2.2216473    1.1336562    0.2934990
C     1.0486931    0.3945528    0.0302412
C     3.4483363    0.4614633    0.5573939
H     4.3095794    1.0606054    0.8334846
C     3.5427346   -0.8855926    0.4749463
H     4.4731467   -1.3939704    0.7038822
C     2.4490052   -1.6474447   -0.0196319
C     1.2150704   -1.0057258   -0.3013573
C     0.2531113   -1.7434440   -1.0216591
H    -0.6541356   -1.2535051   -1.3462847
C     0.4494193   -3.0628597   -1.3413779
H    -0.3083162   -3.5944309   -1.9054060
C     1.6251726   -3.7207967   -0.9552541
H     1.7670048   -4.7687404   -1.1927019
C     2.6109872   -3.0144177   -0.3183050
H     3.5525612   -3.4902813   -0.0646367
Bq         3.1348913999    -0.3835990216     0.4785456382
Bq         3.1352474668    -0.3336594139     0.4761148358
Bq         3.1356035338    -0.2837198063     0.4736840334
Bq         3.1359596008    -0.2337801986     0.4712532310
Bq         3.1363156677    -0.1838405909     0.4688224286
Bq         3.1366717347    -0.1339009832     0.4663916263
Bq         3.1370278017    -0.0839613755     0.4639608239
Bq         3.1373838687    -0.0340217678     0.4615300215
Bq         3.1377399356     0.0159178399     0.4590992191
Bq         3.1380960026     0.0658574476     0.4566684167
Bq         3.1384520696     0.1157970553     0.4542376143
Bq         3.1388081365     0.1657366629     0.4518068120
Bq         3.1391642035     0.2156762706     0.4493760096
Bq         3.1395202705     0.2656158783     0.4469452072
Bq         3.1398763374     0.3155554860     0.4445144048
Bq         3.1402324044     0.3654950937     0.4420836024
Bq         3.1405884714     0.4154347014     0.4396528000
Bq         3.1409445384     0.4653743091     0.4372219977
Bq         3.1413006053     0.5153139168     0.4347911953
Bq         3.1416566723     0.5652535245     0.4323603929
Bq         3.1420127393     0.6151931321     0.4299295905
Bq         3.1423688062     0.6651327398     0.4274987881
Bq         3.1427248732     0.7150723475     0.4250679857
Bq         3.1430809402     0.7650119552     0.4226371834
Bq         3.1434370072     0.8149515629     0.4202063810
Bq         3.1437930741     0.8648911706     0.4177755786
Bq         3.1441491411     0.9148307783     0.4153447762
Bq         3.1445052081     0.9647703860     0.4129139738
Bq         3.1448612750     1.0147099936     0.4104831714
Bq         3.1452173420     1.0646496013     0.4080523691
Bq         3.1455734090     1.1145892090     0.4056215667
Bq         3.1459294760     1.1645288167     0.4031907643
Bq         3.1462855429     1.2144684244     0.4007599619
Bq         3.1466416099     1.2644080321     0.3983291595
Bq         3.1469976769     1.3143476398     0.3958983571
Bq         3.1473537438     1.3642872475     0.3934675548
Bq         3.1477098108     1.4142268552     0.3910367524
Bq         3.1480658778     1.4641664628     0.3886059500
Bq         3.1484219447     1.5141060705     0.3861751476
Bq         3.1487780117     1.5640456782     0.3837443452
Bq         3.1491340787     1.6139852859     0.3813135428
Bq         3.1494901457     1.6639248936     0.3788827405
Bq         3.1498462126     1.7138645013     0.3764519381
Bq         3.1502022796     1.7638041090     0.3740211357
Bq         3.1505583466     1.8137437167     0.3715903333
Bq         3.1509144135     1.8636833244     0.3691595309
Bq         3.1512704805     1.9136229320     0.3667287286
Bq         3.1516265475     1.9635625397     0.3642979262
Bq         3.1519826145     2.0135021474     0.3618671238
Bq         3.1523386814     2.0634417551     0.3594363214
Bq         3.1526947484     2.1133813628     0.3570055190
Bq         3.1530508154     2.1633209705     0.3545747166
Bq         3.1534068823     2.2132605782     0.3521439143
Bq         3.1537629493     2.2632001859     0.3497131119
Bq         3.1541190163     2.3131397936     0.3472823095
Bq         3.1544750833     2.3630794012     0.3448515071
Bq         3.1548311502     2.4130190089     0.3424207047
Bq         3.1551872172     2.4629586166     0.3399899023
Bq         3.1555432842     2.5128982243     0.3375591000
Bq         3.1558993511     2.5628378320     0.3351282976
Bq         3.1562554181     2.6127774397     0.3326974952
Bq         3.1566114851     2.6627170474     0.3302666928
Bq         3.1569675520     2.7126566551     0.3278358904
Bq         3.1573236190     2.7625962627     0.3254050880
Bq         3.1576796860     2.8125358704     0.3229742857
Bq         3.1580357530     2.8624754781     0.3205434833
Bq         3.1583918199     2.9124150858     0.3181126809
Bq         3.1587478869     2.9623546935     0.3156818785
Bq         3.1591039539     3.0122943012     0.3132510761
Bq         3.1594600208     3.0622339089     0.3108202737
Bq         3.1598160878     3.1121735166     0.3083894714
Bq         3.1601721548     3.1621131243     0.3059586690
Bq         3.1605282218     3.2120527319     0.3035278666
Bq         3.1608842887     3.2619923396     0.3010970642
Bq         3.1612403557     3.3119319473     0.2986662618
Bq         3.1615964227     3.3618715550     0.2962354594
Bq         3.1619524896     3.4118111627     0.2938046571
Bq         3.1623085566     3.4617507704     0.2913738547
Bq         3.1626646236     3.5116903781     0.2889430523
Bq         3.1630206906     3.5616299858     0.2865122499
Bq         3.1633767575     3.6115695935     0.2840814475
Bq         3.1637328245     3.6615092011     0.2816506451
Bq         3.1640888915     3.7114488088     0.2792198428
Bq         3.1644449584     3.7613884165     0.2767890404
Bq         3.1648010254     3.8113280242     0.2743582380
Bq         3.1651570924     3.8612676319     0.2719274356
Bq         3.1655131593     3.9112072396     0.2694966332
Bq         3.1658692263     3.9611468473     0.2670658308
Bq         3.1662252933     4.0110864550     0.2646350285
Bq         3.1665813603     4.0610260627     0.2622042261
Bq         3.1669374272     4.1109656703     0.2597734237
Bq         3.1672934942     4.1609052780     0.2573426213
Bq         3.1676495612     4.2108448857     0.2549118189
Bq         3.1680056281     4.2607844934     0.2524810165
Bq         3.1683616951     4.3107241011     0.2500502142
Bq         3.1822270600    -0.6832366678     0.5003771819
Bq         3.1825831269    -0.6332970601     0.4979463796
Bq         3.1829391939    -0.5833574524     0.4955155772
Bq         3.1832952609    -0.5334178447     0.4930847748
Bq         3.1836513278    -0.4834782370     0.4906539724
Bq         3.1840073948    -0.4335386293     0.4882231700
Bq         3.1843634618    -0.3835990216     0.4857923676
Bq         3.1847195288    -0.3336594139     0.4833615653
Bq         3.1850755957    -0.2837198063     0.4809307629
Bq         3.1854316627    -0.2337801986     0.4784999605
Bq         3.1857877297    -0.1838405909     0.4760691581
Bq         3.1861437966    -0.1339009832     0.4736383557
Bq         3.1864998636    -0.0839613755     0.4712075533
Bq         3.1868559306    -0.0340217678     0.4687767510
Bq         3.1872119976     0.0159178399     0.4663459486
Bq         3.1875680645     0.0658574476     0.4639151462
Bq         3.1879241315     0.1157970553     0.4614843438
Bq         3.1882801985     0.1657366629     0.4590535414
Bq         3.1886362654     0.2156762706     0.4566227390
Bq         3.1889923324     0.2656158783     0.4541919367
Bq         3.1893483994     0.3155554860     0.4517611343
Bq         3.1897044664     0.3654950937     0.4493303319
Bq         3.1900605333     0.4154347014     0.4468995295
Bq         3.1904166003     0.4653743091     0.4444687271
Bq         3.1907726673     0.5153139168     0.4420379247
Bq         3.1911287342     0.5652535245     0.4396071224
Bq         3.1914848012     0.6151931321     0.4371763200
Bq         3.1918408682     0.6651327398     0.4347455176
Bq         3.1921969351     0.7150723475     0.4323147152
Bq         3.1925530021     0.7650119552     0.4298839128
Bq         3.1929090691     0.8149515629     0.4274531104
Bq         3.1932651361     0.8648911706     0.4250223081
Bq         3.1936212030     0.9148307783     0.4225915057
Bq         3.1939772700     0.9647703860     0.4201607033
Bq         3.1943333370     1.0147099936     0.4177299009
Bq         3.1946894039     1.0646496013     0.4152990985
Bq         3.1950454709     1.1145892090     0.4128682961
Bq         3.1954015379     1.1645288167     0.4104374938
Bq         3.1957576049     1.2144684244     0.4080066914
Bq         3.1961136718     1.2644080321     0.4055758890
Bq         3.1964697388     1.3143476398     0.4031450866
Bq         3.1968258058     1.3642872475     0.4007142842
Bq         3.1971818727     1.4142268552     0.3982834818
Bq         3.1975379397     1.4641664628     0.3958526795
Bq         3.1978940067     1.5141060705     0.3934218771
Bq         3.1982500737     1.5640456782     0.3909910747
Bq         3.1986061406     1.6139852859     0.3885602723
Bq         3.1989622076     1.6639248936     0.3861294699
Bq         3.1993182746     1.7138645013     0.3836986675
Bq         3.1996743415     1.7638041090     0.3812678652
Bq         3.2000304085     1.8137437167     0.3788370628
Bq         3.2003864755     1.8636833244     0.3764062604
Bq         3.2007425424     1.9136229320     0.3739754580
Bq         3.2010986094     1.9635625397     0.3715446556
Bq         3.2014546764     2.0135021474     0.3691138532
Bq         3.2018107434     2.0634417551     0.3666830509
Bq         3.2021668103     2.1133813628     0.3642522485
Bq         3.2025228773     2.1633209705     0.3618214461
Bq         3.2028789443     2.2132605782     0.3593906437
Bq         3.2032350112     2.2632001859     0.3569598413
Bq         3.2035910782     2.3131397936     0.3545290389
Bq         3.2039471452     2.3630794012     0.3520982366
Bq         3.2043032122     2.4130190089     0.3496674342
Bq         3.2046592791     2.4629586166     0.3472366318
Bq         3.2050153461     2.5128982243     0.3448058294
Bq         3.2053714131     2.5628378320     0.3423750270
Bq         3.2057274800     2.6127774397     0.3399442246
Bq         3.2060835470     2.6627170474     0.3375134223
Bq         3.2064396140     2.7126566551     0.3350826199
Bq         3.2067956810     2.7625962627     0.3326518175
Bq         3.2071517479     2.8125358704     0.3302210151
Bq         3.2075078149     2.8624754781     0.3277902127
Bq         3.2078638819     2.9124150858     0.3253594103
Bq         3.2082199488     2.9623546935     0.3229286080
Bq         3.2085760158     3.0122943012     0.3204978056
Bq         3.2089320828     3.0622339089     0.3180670032
Bq         3.2092881497     3.1121735166     0.3156362008
Bq         3.2096442167     3.1621131243     0.3132053984
Bq         3.2100002837     3.2120527319     0.3107745960
Bq         3.2103563507     3.2619923396     0.3083437937
Bq         3.2107124176     3.3119319473     0.3059129913
Bq         3.2110684846     3.3618715550     0.3034821889
Bq         3.2114245516     3.4118111627     0.3010513865
Bq         3.2117806185     3.4617507704     0.2986205841
Bq         3.2121366855     3.5116903781     0.2961897817
Bq         3.2124927525     3.5616299858     0.2937589794
Bq         3.2128488195     3.6115695935     0.2913281770
Bq         3.2132048864     3.6615092011     0.2888973746
Bq         3.2135609534     3.7114488088     0.2864665722
Bq         3.2139170204     3.7613884165     0.2840357698
Bq         3.2142730873     3.8113280242     0.2816049674
Bq         3.2146291543     3.8612676319     0.2791741651
Bq         3.2149852213     3.9112072396     0.2767433627
Bq         3.2153412883     3.9611468473     0.2743125603
Bq         3.2156973552     4.0110864550     0.2718817579
Bq         3.2160534222     4.0610260627     0.2694509555
Bq         3.2164094892     4.1109656703     0.2670201531
Bq         3.2167655561     4.1609052780     0.2645893508
Bq         3.2171216231     4.2108448857     0.2621585484
Bq         3.2174776901     4.2607844934     0.2597277460
Bq         3.2178337570     4.3107241011     0.2572969436
Bq         3.2316991219    -0.6832366678     0.5076239114
Bq         3.2320551889    -0.6332970601     0.5051931090
Bq         3.2324112558    -0.5833574524     0.5027623066
Bq         3.2327673228    -0.5334178447     0.5003315042

1
2
3
4
5
6
7
8
9
10
11
12
13
14
15
16
17
18
19
20
21
22
23
24
25
26
27
28
29
30
31
32
33
34
35
36
37
38
39
40
41
42
43
44
45
46
47
48
49
50
51
52
53
54
55
56
57
58
59
60
61
62
63
64
65
66
67
68
69
70
71
72
73
74
75
76
77
78
79
80
81
82
83
84
85
86
87
88
89
90
91
92
93
94
95
96
97
98
99
100
101
102
103
104
105
106
107
108
109
110
111
112
113
114
115
116
117
118
119
120
121
122
123
124
125
126
127
128
129
130
131
132
133
134
135
136
137
138
139
140
141
142
143
144
145
146
147
148
149
150
151
152
153
154
155
156
157
158
159
160
161
162
163
164
165
166
167
168
169
170
171
172
173
174
175
176
177
178
179
180
181
182
183
184
185
186
187
188
189
190
191
192
193
194
195
196
197
198
199
200
201
202
203
204
205
206
207
208
209
210
211
212
213
214
215
216
217
218
219
220
221
222
223
224
225
226
227
228
229
230
231
232
233
234
235
236

