%nproc=8
%mem=1000MB
# rb3lyp/6-311+g** NMR geom=connectivity

Title

0 1
C    -4.0500558   -0.5771862    0.8136712
H    -5.0263804   -1.0082727    1.0024760
C    -3.9381552    0.6617804    0.2400876
H    -4.8252424    1.2338890   -0.0111295
C    -2.6768410    1.2433246    0.0057578
C    -1.4974121    0.5051527    0.2848253
C    -1.6508332   -0.7338728    0.9404026
H    -0.7713646   -1.2730967    1.2633753
C    -2.8898548   -1.2624035    1.1994307
H    -2.9683706   -2.2124563    1.7152676
C    -2.5773185    2.5963696   -0.4192930
H    -3.4870728    3.1412239   -0.6474055
C    -1.3741895    3.2147896   -0.4364030
H    -1.2997315    4.2742019   -0.6578144
C    -0.1719488    2.4994090   -0.1734588
C    -0.2043917    1.1018437    0.0192689
C     1.0513491    3.2042560   -0.0676222
H     1.0427344    4.2819499   -0.1896997
C     2.1942091    2.5487446    0.2579577
H     3.1168527    3.0912848    0.4334727
C     2.2216473    1.1336562    0.2934990
C     1.0486931    0.3945528    0.0302412
C     3.4483363    0.4614633    0.5573939
H     4.3095794    1.0606054    0.8334846
C     3.5427346   -0.8855926    0.4749463
H     4.4731467   -1.3939704    0.7038822
C     2.4490052   -1.6474447   -0.0196319
C     1.2150704   -1.0057258   -0.3013573
C     0.2531113   -1.7434440   -1.0216591
H    -0.6541356   -1.2535051   -1.3462847
C     0.4494193   -3.0628597   -1.3413779
H    -0.3083162   -3.5944309   -1.9054060
C     1.6251726   -3.7207967   -0.9552541
H     1.7670048   -4.7687404   -1.1927019
C     2.6109872   -3.0144177   -0.3183050
H     3.5525612   -3.4902813   -0.0646367
Bq        -0.6961562074     3.5116903781    -0.2763018454
Bq        -0.6958001404     3.5616299858    -0.2787326477
Bq        -0.6954440735     3.6115695935    -0.2811634501
Bq        -0.6950880065     3.6615092011    -0.2835942525
Bq        -0.6947319395     3.7114488088    -0.2860250549
Bq        -0.6943758726     3.7613884165    -0.2884558573
Bq        -0.6940198056     3.8113280242    -0.2908866597
Bq        -0.6936637386     3.8612676319    -0.2933174620
Bq        -0.6933076716     3.9112072396    -0.2957482644
Bq        -0.6929516047     3.9611468473    -0.2981790668
Bq        -0.6925955377     4.0110864550    -0.3006098692
Bq        -0.6922394707     4.0610260627    -0.3030406716
Bq        -0.6918834038     4.1109656703    -0.3054714740
Bq        -0.6915273368     4.1609052780    -0.3079022763
Bq        -0.6911712698     4.2108448857    -0.3103330787
Bq        -0.6908152028     4.2607844934    -0.3127638811
Bq        -0.6904591359     4.3107241011    -0.3151946835
Bq        -0.6765937710    -0.6832366678    -0.0648677157
Bq        -0.6762377041    -0.6332970601    -0.0672985181
Bq        -0.6758816371    -0.5833574524    -0.0697293205
Bq        -0.6755255701    -0.5334178447    -0.0721601229
Bq        -0.6751695031    -0.4834782370    -0.0745909252
Bq        -0.6748134362    -0.4335386293    -0.0770217276
Bq        -0.6744573692    -0.3835990216    -0.0794525300
Bq        -0.6741013022    -0.3336594139    -0.0818833324
Bq        -0.6737452353    -0.2837198063    -0.0843141348
Bq        -0.6733891683    -0.2337801986    -0.0867449372
Bq        -0.6730331013    -0.1838405909    -0.0891757395
Bq        -0.6726770343    -0.1339009832    -0.0916065419
Bq        -0.6723209674    -0.0839613755    -0.0940373443
Bq        -0.6719649004    -0.0340217678    -0.0964681467
Bq        -0.6716088334     0.0159178399    -0.0988989491
Bq        -0.6712527665     0.0658574476    -0.1013297515
Bq        -0.6708966995     0.1157970553    -0.1037605538
Bq        -0.6705406325     0.1657366629    -0.1061913562
Bq        -0.6701845655     0.2156762706    -0.1086221586
Bq        -0.6698284986     0.2656158783    -0.1110529610
Bq        -0.6694724316     0.3155554860    -0.1134837634
Bq        -0.6691163646     0.3654950937    -0.1159145658
Bq        -0.6687602977     0.4154347014    -0.1183453681
Bq        -0.6684042307     0.4653743091    -0.1207761705
Bq        -0.6680481637     0.5153139168    -0.1232069729
Bq        -0.6676920968     0.5652535245    -0.1256377753
Bq        -0.6673360298     0.6151931321    -0.1280685777
Bq        -0.6669799628     0.6651327398    -0.1304993801
Bq        -0.6666238958     0.7150723475    -0.1329301824
Bq        -0.6662678289     0.7650119552    -0.1353609848
Bq        -0.6659117619     0.8149515629    -0.1377917872
Bq        -0.6655556949     0.8648911706    -0.1402225896
Bq        -0.6651996280     0.9148307783    -0.1426533920
Bq        -0.6648435610     0.9647703860    -0.1450841944
Bq        -0.6644874940     1.0147099936    -0.1475149967
Bq        -0.6641314270     1.0646496013    -0.1499457991
Bq        -0.6637753601     1.1145892090    -0.1523766015
Bq        -0.6634192931     1.1645288167    -0.1548074039
Bq        -0.6630632261     1.2144684244    -0.1572382063
Bq        -0.6627071592     1.2644080321    -0.1596690087
Bq        -0.6623510922     1.3143476398    -0.1620998110
Bq        -0.6619950252     1.3642872475    -0.1645306134
Bq        -0.6616389582     1.4142268552    -0.1669614158
Bq        -0.6612828913     1.4641664628    -0.1693922182
Bq        -0.6609268243     1.5141060705    -0.1718230206
Bq        -0.6605707573     1.5640456782    -0.1742538230
Bq        -0.6602146904     1.6139852859    -0.1766846253
Bq        -0.6598586234     1.6639248936    -0.1791154277
Bq        -0.6595025564     1.7138645013    -0.1815462301
Bq        -0.6591464895     1.7638041090    -0.1839770325
Bq        -0.6587904225     1.8137437167    -0.1864078349
Bq        -0.6584343555     1.8636833244    -0.1888386373
Bq        -0.6580782885     1.9136229320    -0.1912694396
Bq        -0.6577222216     1.9635625397    -0.1937002420
Bq        -0.6573661546     2.0135021474    -0.1961310444
Bq        -0.6570100876     2.0634417551    -0.1985618468
Bq        -0.6566540207     2.1133813628    -0.2009926492
Bq        -0.6562979537     2.1633209705    -0.2034234516
Bq        -0.6559418867     2.2132605782    -0.2058542539
Bq        -0.6555858197     2.2632001859    -0.2082850563
Bq        -0.6552297528     2.3131397936    -0.2107158587
Bq        -0.6548736858     2.3630794012    -0.2131466611
Bq        -0.6545176188     2.4130190089    -0.2155774635
Bq        -0.6541615519     2.4629586166    -0.2180082659
Bq        -0.6538054849     2.5128982243    -0.2204390682
Bq        -0.6534494179     2.5628378320    -0.2228698706
Bq        -0.6530933509     2.6127774397    -0.2253006730
Bq        -0.6527372840     2.6627170474    -0.2277314754
Bq        -0.6523812170     2.7126566551    -0.2301622778
Bq        -0.6520251500     2.7625962627    -0.2325930802
Bq        -0.6516690831     2.8125358704    -0.2350238825
Bq        -0.6513130161     2.8624754781    -0.2374546849
Bq        -0.6509569491     2.9124150858    -0.2398854873
Bq        -0.6506008822     2.9623546935    -0.2423162897
Bq        -0.6502448152     3.0122943012    -0.2447470921
Bq        -0.6498887482     3.0622339089    -0.2471778945
Bq        -0.6495326812     3.1121735166    -0.2496086968
Bq        -0.6491766143     3.1621131243    -0.2520394992
Bq        -0.6488205473     3.2120527319    -0.2544703016
Bq        -0.6484644803     3.2619923396    -0.2569011040
Bq        -0.6481084134     3.3119319473    -0.2593319064
Bq        -0.6477523464     3.3618715550    -0.2617627088
Bq        -0.6473962794     3.4118111627    -0.2641935111
Bq        -0.6470402124     3.4617507704    -0.2666243135
Bq        -0.6466841455     3.5116903781    -0.2690551159
Bq        -0.6463280785     3.5616299858    -0.2714859183
Bq        -0.6459720115     3.6115695935    -0.2739167207
Bq        -0.6456159446     3.6615092011    -0.2763475231
Bq        -0.6452598776     3.7114488088    -0.2787783254
Bq        -0.6449038106     3.7613884165    -0.2812091278
Bq        -0.6445477436     3.8113280242    -0.2836399302
Bq        -0.6441916767     3.8612676319    -0.2860707326
Bq        -0.6438356097     3.9112072396    -0.2885015350
Bq        -0.6434795427     3.9611468473    -0.2909323373
Bq        -0.6431234758     4.0110864550    -0.2933631397
Bq        -0.6427674088     4.0610260627    -0.2957939421
Bq        -0.6424113418     4.1109656703    -0.2982247445
Bq        -0.6420552749     4.1609052780    -0.3006555469
Bq        -0.6416992079     4.2108448857    -0.3030863493
Bq        -0.6413431409     4.2607844934    -0.3055171516
Bq        -0.6409870739     4.3107241011    -0.3079479540
Bq        -0.6271217091    -0.6832366678    -0.0576209863
Bq        -0.6267656421    -0.6332970601    -0.0600517886
Bq        -0.6264095751    -0.5833574524    -0.0624825910
Bq        -0.6260535082    -0.5334178447    -0.0649133934
Bq        -0.6256974412    -0.4834782370    -0.0673441958
Bq        -0.6253413742    -0.4335386293    -0.0697749982
Bq        -0.6249853073    -0.3835990216    -0.0722058006
Bq        -0.6246292403    -0.3336594139    -0.0746366029
Bq        -0.6242731733    -0.2837198063    -0.0770674053
Bq        -0.6239171064    -0.2337801986    -0.0794982077
Bq        -0.6235610394    -0.1838405909    -0.0819290101
Bq        -0.6232049724    -0.1339009832    -0.0843598125
Bq        -0.6228489054    -0.0839613755    -0.0867906149
Bq        -0.6224928385    -0.0340217678    -0.0892214172
Bq        -0.6221367715     0.0159178399    -0.0916522196
Bq        -0.6217807045     0.0658574476    -0.0940830220
Bq        -0.6214246376     0.1157970553    -0.0965138244
Bq        -0.6210685706     0.1657366629    -0.0989446268
Bq        -0.6207125036     0.2156762706    -0.1013754292
Bq        -0.6203564366     0.2656158783    -0.1038062315
Bq        -0.6200003697     0.3155554860    -0.1062370339
Bq        -0.6196443027     0.3654950937    -0.1086678363
Bq        -0.6192882357     0.4154347014    -0.1110986387
Bq        -0.6189321688     0.4653743091    -0.1135294411
Bq        -0.6185761018     0.5153139168    -0.1159602434
Bq        -0.6182200348     0.5652535245    -0.1183910458
Bq        -0.6178639678     0.6151931321    -0.1208218482
Bq        -0.6175079009     0.6651327398    -0.1232526506
Bq        -0.6171518339     0.7150723475    -0.1256834530
Bq        -0.6167957669     0.7650119552    -0.1281142554
Bq        -0.6164397000     0.8149515629    -0.1305450577
Bq        -0.6160836330     0.8648911706    -0.1329758601
Bq        -0.6157275660     0.9148307783    -0.1354066625
Bq        -0.6153714991     0.9647703860    -0.1378374649
Bq        -0.6150154321     1.0147099936    -0.1402682673
Bq        -0.6146593651     1.0646496013    -0.1426990697
Bq        -0.6143032981     1.1145892090    -0.1451298720
Bq        -0.6139472312     1.1645288167    -0.1475606744
Bq        -0.6135911642     1.2144684244    -0.1499914768
Bq        -0.6132350972     1.2644080321    -0.1524222792
Bq        -0.6128790303     1.3143476398    -0.1548530816
Bq        -0.6125229633     1.3642872475    -0.1572838840
Bq        -0.6121668963     1.4142268552    -0.1597146863
Bq        -0.6118108293     1.4641664628    -0.1621454887
Bq        -0.6114547624     1.5141060705    -0.1645762911
Bq        -0.6110986954     1.5640456782    -0.1670070935
Bq        -0.6107426284     1.6139852859    -0.1694378959
Bq        -0.6103865615     1.6639248936    -0.1718686983
Bq        -0.6100304945     1.7138645013    -0.1742995006
Bq        -0.6096744275     1.7638041090    -0.1767303030
Bq        -0.6093183605     1.8137437167    -0.1791611054
Bq        -0.6089622936     1.8636833244    -0.1815919078
Bq        -0.6086062266     1.9136229320    -0.1840227102
Bq        -0.6082501596     1.9635625397    -0.1864535126
Bq        -0.6078940927     2.0135021474    -0.1888843149
Bq        -0.6075380257     2.0634417551    -0.1913151173
Bq        -0.6071819587     2.1133813628    -0.1937459197
Bq        -0.6068258918     2.1633209705    -0.1961767221
Bq        -0.6064698248     2.2132605782    -0.1986075245
Bq        -0.6061137578     2.2632001859    -0.2010383269
Bq        -0.6057576908     2.3131397936    -0.2034691292
Bq        -0.6054016239     2.3630794012    -0.2058999316
Bq        -0.6050455569     2.4130190089    -0.2083307340
Bq        -0.6046894899     2.4629586166    -0.2107615364
Bq        -0.6043334230     2.5128982243    -0.2131923388
Bq        -0.6039773560     2.5628378320    -0.2156231412
Bq        -0.6036212890     2.6127774397    -0.2180539435
Bq        -0.6032652220     2.6627170474    -0.2204847459
Bq        -0.6029091551     2.7126566551    -0.2229155483
Bq        -0.6025530881     2.7625962627    -0.2253463507
Bq        -0.6021970211     2.8125358704    -0.2277771531
Bq        -0.6018409542     2.8624754781    -0.2302079555
Bq        -0.6014848872     2.9124150858    -0.2326387578
Bq        -0.6011288202     2.9623546935    -0.2350695602
Bq        -0.6007727532     3.0122943012    -0.2375003626
Bq        -0.6004166863     3.0622339089    -0.2399311650
Bq        -0.6000606193     3.1121735166    -0.2423619674
Bq        -0.5997045523     3.1621131243    -0.2447927698
Bq        -0.5993484854     3.2120527319    -0.2472235721
Bq        -0.5989924184     3.2619923396    -0.2496543745
Bq        -0.5986363514     3.3119319473    -0.2520851769
Bq        -0.5982802845     3.3618715550    -0.2545159793

1
2
3
4
5
6
7
8
9
10
11
12
13
14
15
16
17
18
19
20
21
22
23
24
25
26
27
28
29
30
31
32
33
34
35
36
37
38
39
40
41
42
43
44
45
46
47
48
49
50
51
52
53
54
55
56
57
58
59
60
61
62
63
64
65
66
67
68
69
70
71
72
73
74
75
76
77
78
79
80
81
82
83
84
85
86
87
88
89
90
91
92
93
94
95
96
97
98
99
100
101
102
103
104
105
106
107
108
109
110
111
112
113
114
115
116
117
118
119
120
121
122
123
124
125
126
127
128
129
130
131
132
133
134
135
136
137
138
139
140
141
142
143
144
145
146
147
148
149
150
151
152
153
154
155
156
157
158
159
160
161
162
163
164
165
166
167
168
169
170
171
172
173
174
175
176
177
178
179
180
181
182
183
184
185
186
187
188
189
190
191
192
193
194
195
196
197
198
199
200
201
202
203
204
205
206
207
208
209
210
211
212
213
214
215
216
217
218
219
220
221
222
223
224
225
226
227
228
229
230
231
232
233
234
235
236

