%nproc=8
%mem=1000MB
# rb3lyp/6-311+g** NMR geom=connectivity

Title

0 1
C    -4.0500558   -0.5771862    0.8136712
H    -5.0263804   -1.0082727    1.0024760
C    -3.9381552    0.6617804    0.2400876
H    -4.8252424    1.2338890   -0.0111295
C    -2.6768410    1.2433246    0.0057578
C    -1.4974121    0.5051527    0.2848253
C    -1.6508332   -0.7338728    0.9404026
H    -0.7713646   -1.2730967    1.2633753
C    -2.8898548   -1.2624035    1.1994307
H    -2.9683706   -2.2124563    1.7152676
C    -2.5773185    2.5963696   -0.4192930
H    -3.4870728    3.1412239   -0.6474055
C    -1.3741895    3.2147896   -0.4364030
H    -1.2997315    4.2742019   -0.6578144
C    -0.1719488    2.4994090   -0.1734588
C    -0.2043917    1.1018437    0.0192689
C     1.0513491    3.2042560   -0.0676222
H     1.0427344    4.2819499   -0.1896997
C     2.1942091    2.5487446    0.2579577
H     3.1168527    3.0912848    0.4334727
C     2.2216473    1.1336562    0.2934990
C     1.0486931    0.3945528    0.0302412
C     3.4483363    0.4614633    0.5573939
H     4.3095794    1.0606054    0.8334846
C     3.5427346   -0.8855926    0.4749463
H     4.4731467   -1.3939704    0.7038822
C     2.4490052   -1.6474447   -0.0196319
C     1.2150704   -1.0057258   -0.3013573
C     0.2531113   -1.7434440   -1.0216591
H    -0.6541356   -1.2535051   -1.3462847
C     0.4494193   -3.0628597   -1.3413779
H    -0.3083162   -3.5944309   -1.9054060
C     1.6251726   -3.7207967   -0.9552541
H     1.7670048   -4.7687404   -1.1927019
C     2.6109872   -3.0144177   -0.3183050
H     3.5525612   -3.4902813   -0.0646367
Bq        -0.4014602376     3.2120527319    -0.2182366543
Bq        -0.4011041706     3.2619923396    -0.2206674567
Bq        -0.4007481037     3.3119319473    -0.2230982591
Bq        -0.4003920367     3.3618715550    -0.2255290615
Bq        -0.4000359697     3.4118111627    -0.2279598638
Bq        -0.3996799028     3.4617507704    -0.2303906662
Bq        -0.3993238358     3.5116903781    -0.2328214686
Bq        -0.3989677688     3.5616299858    -0.2352522710
Bq        -0.3986117019     3.6115695935    -0.2376830734
Bq        -0.3982556349     3.6615092011    -0.2401138758
Bq        -0.3978995679     3.7114488088    -0.2425446781
Bq        -0.3975435009     3.7613884165    -0.2449754805
Bq        -0.3971874340     3.8113280242    -0.2474062829
Bq        -0.3968313670     3.8612676319    -0.2498370853
Bq        -0.3964753000     3.9112072396    -0.2522678877
Bq        -0.3961192331     3.9611468473    -0.2546986901
Bq        -0.3957631661     4.0110864550    -0.2571294924
Bq        -0.3954070991     4.0610260627    -0.2595602948
Bq        -0.3950510321     4.1109656703    -0.2619910972
Bq        -0.3946949652     4.1609052780    -0.2644218996
Bq        -0.3943388982     4.2108448857    -0.2668527020
Bq        -0.3939828312     4.2607844934    -0.2692835044
Bq        -0.3936267643     4.3107241011    -0.2717143067
Bq        -0.3797613994    -0.6832366678    -0.0213873390
Bq        -0.3794053324    -0.6332970601    -0.0238181414
Bq        -0.3790492655    -0.5833574524    -0.0262489437
Bq        -0.3786931985    -0.5334178447    -0.0286797461
Bq        -0.3783371315    -0.4834782370    -0.0311105485
Bq        -0.3779810646    -0.4335386293    -0.0335413509
Bq        -0.3776249976    -0.3835990216    -0.0359721533
Bq        -0.3772689306    -0.3336594139    -0.0384029556
Bq        -0.3769128636    -0.2837198063    -0.0408337580
Bq        -0.3765567967    -0.2337801986    -0.0432645604
Bq        -0.3762007297    -0.1838405909    -0.0456953628
Bq        -0.3758446627    -0.1339009832    -0.0481261652
Bq        -0.3754885958    -0.0839613755    -0.0505569676
Bq        -0.3751325288    -0.0340217678    -0.0529877699
Bq        -0.3747764618     0.0159178399    -0.0554185723
Bq        -0.3744203948     0.0658574476    -0.0578493747
Bq        -0.3740643279     0.1157970553    -0.0602801771
Bq        -0.3737082609     0.1657366629    -0.0627109795
Bq        -0.3733521939     0.2156762706    -0.0651417819
Bq        -0.3729961270     0.2656158783    -0.0675725842
Bq        -0.3726400600     0.3155554860    -0.0700033866
Bq        -0.3722839930     0.3654950937    -0.0724341890
Bq        -0.3719279261     0.4154347014    -0.0748649914
Bq        -0.3715718591     0.4653743091    -0.0772957938
Bq        -0.3712157921     0.5153139168    -0.0797265962
Bq        -0.3708597251     0.5652535245    -0.0821573985
Bq        -0.3705036582     0.6151931321    -0.0845882009
Bq        -0.3701475912     0.6651327398    -0.0870190033
Bq        -0.3697915242     0.7150723475    -0.0894498057
Bq        -0.3694354573     0.7650119552    -0.0918806081
Bq        -0.3690793903     0.8149515629    -0.0943114105
Bq        -0.3687233233     0.8648911706    -0.0967422128
Bq        -0.3683672563     0.9148307783    -0.0991730152
Bq        -0.3680111894     0.9647703860    -0.1016038176
Bq        -0.3676551224     1.0147099936    -0.1040346200
Bq        -0.3672990554     1.0646496013    -0.1064654224
Bq        -0.3669429885     1.1145892090    -0.1088962248
Bq        -0.3665869215     1.1645288167    -0.1113270271
Bq        -0.3662308545     1.2144684244    -0.1137578295
Bq        -0.3658747875     1.2644080321    -0.1161886319
Bq        -0.3655187206     1.3143476398    -0.1186194343
Bq        -0.3651626536     1.3642872475    -0.1210502367
Bq        -0.3648065866     1.4142268552    -0.1234810391
Bq        -0.3644505197     1.4641664628    -0.1259118414
Bq        -0.3640944527     1.5141060705    -0.1283426438
Bq        -0.3637383857     1.5640456782    -0.1307734462
Bq        -0.3633823188     1.6139852859    -0.1332042486
Bq        -0.3630262518     1.6639248936    -0.1356350510
Bq        -0.3626701848     1.7138645013    -0.1380658534
Bq        -0.3623141178     1.7638041090    -0.1404966557
Bq        -0.3619580509     1.8137437167    -0.1429274581
Bq        -0.3616019839     1.8636833244    -0.1453582605
Bq        -0.3612459169     1.9136229320    -0.1477890629
Bq        -0.3608898500     1.9635625397    -0.1502198653
Bq        -0.3605337830     2.0135021474    -0.1526506677
Bq        -0.3601777160     2.0634417551    -0.1550814700
Bq        -0.3598216490     2.1133813628    -0.1575122724
Bq        -0.3594655821     2.1633209705    -0.1599430748
Bq        -0.3591095151     2.2132605782    -0.1623738772
Bq        -0.3587534481     2.2632001859    -0.1648046796
Bq        -0.3583973812     2.3131397936    -0.1672354820
Bq        -0.3580413142     2.3630794012    -0.1696662843
Bq        -0.3576852472     2.4130190089    -0.1720970867
Bq        -0.3573291802     2.4629586166    -0.1745278891
Bq        -0.3569731133     2.5128982243    -0.1769586915
Bq        -0.3566170463     2.5628378320    -0.1793894939
Bq        -0.3562609793     2.6127774397    -0.1818202963
Bq        -0.3559049124     2.6627170474    -0.1842510986
Bq        -0.3555488454     2.7126566551    -0.1866819010
Bq        -0.3551927784     2.7625962627    -0.1891127034
Bq        -0.3548367115     2.8125358704    -0.1915435058
Bq        -0.3544806445     2.8624754781    -0.1939743082
Bq        -0.3541245775     2.9124150858    -0.1964051106
Bq        -0.3537685105     2.9623546935    -0.1988359129
Bq        -0.3534124436     3.0122943012    -0.2012667153
Bq        -0.3530563766     3.0622339089    -0.2036975177
Bq        -0.3527003096     3.1121735166    -0.2061283201
Bq        -0.3523442427     3.1621131243    -0.2085591225
Bq        -0.3519881757     3.2120527319    -0.2109899249
Bq        -0.3516321087     3.2619923396    -0.2134207272
Bq        -0.3512760417     3.3119319473    -0.2158515296
Bq        -0.3509199748     3.3618715550    -0.2182823320
Bq        -0.3505639078     3.4118111627    -0.2207131344
Bq        -0.3502078408     3.4617507704    -0.2231439368
Bq        -0.3498517739     3.5116903781    -0.2255747392
Bq        -0.3494957069     3.5616299858    -0.2280055415
Bq        -0.3491396399     3.6115695935    -0.2304363439
Bq        -0.3487835729     3.6615092011    -0.2328671463
Bq        -0.3484275060     3.7114488088    -0.2352979487
Bq        -0.3480714390     3.7613884165    -0.2377287511
Bq        -0.3477153720     3.8113280242    -0.2401595535
Bq        -0.3473593051     3.8612676319    -0.2425903558
Bq        -0.3470032381     3.9112072396    -0.2450211582
Bq        -0.3466471711     3.9611468473    -0.2474519606
Bq        -0.3462911042     4.0110864550    -0.2498827630
Bq        -0.3459350372     4.0610260627    -0.2523135654
Bq        -0.3455789702     4.1109656703    -0.2547443678
Bq        -0.3452229032     4.1609052780    -0.2571751701
Bq        -0.3448668363     4.2108448857    -0.2596059725
Bq        -0.3445107693     4.2607844934    -0.2620367749
Bq        -0.3441547023     4.3107241011    -0.2644675773
Bq        -0.3302893375    -0.6832366678    -0.0141406095
Bq        -0.3299332705    -0.6332970601    -0.0165714119
Bq        -0.3295772035    -0.5833574524    -0.0190022143
Bq        -0.3292211366    -0.5334178447    -0.0214330167
Bq        -0.3288650696    -0.4834782370    -0.0238638190
Bq        -0.3285090026    -0.4335386293    -0.0262946214
Bq        -0.3281529356    -0.3835990216    -0.0287254238
Bq        -0.3277968687    -0.3336594139    -0.0311562262
Bq        -0.3274408017    -0.2837198063    -0.0335870286
Bq        -0.3270847347    -0.2337801986    -0.0360178310
Bq        -0.3267286678    -0.1838405909    -0.0384486333
Bq        -0.3263726008    -0.1339009832    -0.0408794357
Bq        -0.3260165338    -0.0839613755    -0.0433102381
Bq        -0.3256604669    -0.0340217678    -0.0457410405
Bq        -0.3253043999     0.0159178399    -0.0481718429
Bq        -0.3249483329     0.0658574476    -0.0506026453
Bq        -0.3245922659     0.1157970553    -0.0530334476
Bq        -0.3242361990     0.1657366629    -0.0554642500
Bq        -0.3238801320     0.2156762706    -0.0578950524
Bq        -0.3235240650     0.2656158783    -0.0603258548
Bq        -0.3231679981     0.3155554860    -0.0627566572
Bq        -0.3228119311     0.3654950937    -0.0651874596
Bq        -0.3224558641     0.4154347014    -0.0676182619
Bq        -0.3220997971     0.4653743091    -0.0700490643
Bq        -0.3217437302     0.5153139168    -0.0724798667
Bq        -0.3213876632     0.5652535245    -0.0749106691
Bq        -0.3210315962     0.6151931321    -0.0773414715
Bq        -0.3206755293     0.6651327398    -0.0797722739
Bq        -0.3203194623     0.7150723475    -0.0822030762
Bq        -0.3199633953     0.7650119552    -0.0846338786
Bq        -0.3196073283     0.8149515629    -0.0870646810
Bq        -0.3192512614     0.8648911706    -0.0894954834
Bq        -0.3188951944     0.9148307783    -0.0919262858
Bq        -0.3185391274     0.9647703860    -0.0943570882
Bq        -0.3181830605     1.0147099936    -0.0967878905
Bq        -0.3178269935     1.0646496013    -0.0992186929
Bq        -0.3174709265     1.1145892090    -0.1016494953
Bq        -0.3171148596     1.1645288167    -0.1040802977
Bq        -0.3167587926     1.2144684244    -0.1065111001
Bq        -0.3164027256     1.2644080321    -0.1089419025
Bq        -0.3160466586     1.3143476398    -0.1113727048
Bq        -0.3156905917     1.3642872475    -0.1138035072
Bq        -0.3153345247     1.4142268552    -0.1162343096
Bq        -0.3149784577     1.4641664628    -0.1186651120
Bq        -0.3146223908     1.5141060705    -0.1210959144
Bq        -0.3142663238     1.5640456782    -0.1235267168
Bq        -0.3139102568     1.6139852859    -0.1259575191
Bq        -0.3135541898     1.6639248936    -0.1283883215
Bq        -0.3131981229     1.7138645013    -0.1308191239
Bq        -0.3128420559     1.7638041090    -0.1332499263
Bq        -0.3124859889     1.8137437167    -0.1356807287
Bq        -0.3121299220     1.8636833244    -0.1381115311
Bq        -0.3117738550     1.9136229320    -0.1405423334
Bq        -0.3114177880     1.9635625397    -0.1429731358
Bq        -0.3110617210     2.0135021474    -0.1454039382
Bq        -0.3107056541     2.0634417551    -0.1478347406
Bq        -0.3103495871     2.1133813628    -0.1502655430
Bq        -0.3099935201     2.1633209705    -0.1526963454
Bq        -0.3096374532     2.2132605782    -0.1551271477
Bq        -0.3092813862     2.2632001859    -0.1575579501
Bq        -0.3089253192     2.3131397936    -0.1599887525
Bq        -0.3085692523     2.3630794012    -0.1624195549
Bq        -0.3082131853     2.4130190089    -0.1648503573
Bq        -0.3078571183     2.4629586166    -0.1672811597
Bq        -0.3075010513     2.5128982243    -0.1697119620
Bq        -0.3071449844     2.5628378320    -0.1721427644
Bq        -0.3067889174     2.6127774397    -0.1745735668
Bq        -0.3064328504     2.6627170474    -0.1770043692
Bq        -0.3060767835     2.7126566551    -0.1794351716
Bq        -0.3057207165     2.7625962627    -0.1818659740
Bq        -0.3053646495     2.8125358704    -0.1842967763
Bq        -0.3050085825     2.8624754781    -0.1867275787
Bq        -0.3046525156     2.9124150858    -0.1891583811
Bq        -0.3042964486     2.9623546935    -0.1915891835
Bq        -0.3039403816     3.0122943012    -0.1940199859
Bq        -0.3035843147     3.0622339089    -0.1964507883

1
2
3
4
5
6
7
8
9
10
11
12
13
14
15
16
17
18
19
20
21
22
23
24
25
26
27
28
29
30
31
32
33
34
35
36
37
38
39
40
41
42
43
44
45
46
47
48
49
50
51
52
53
54
55
56
57
58
59
60
61
62
63
64
65
66
67
68
69
70
71
72
73
74
75
76
77
78
79
80
81
82
83
84
85
86
87
88
89
90
91
92
93
94
95
96
97
98
99
100
101
102
103
104
105
106
107
108
109
110
111
112
113
114
115
116
117
118
119
120
121
122
123
124
125
126
127
128
129
130
131
132
133
134
135
136
137
138
139
140
141
142
143
144
145
146
147
148
149
150
151
152
153
154
155
156
157
158
159
160
161
162
163
164
165
166
167
168
169
170
171
172
173
174
175
176
177
178
179
180
181
182
183
184
185
186
187
188
189
190
191
192
193
194
195
196
197
198
199
200
201
202
203
204
205
206
207
208
209
210
211
212
213
214
215
216
217
218
219
220
221
222
223
224
225
226
227
228
229
230
231
232
233
234
235
236

