%nproc=8
%mem=1000MB
# rb3lyp/6-311+g** NMR geom=connectivity

Title

0 1
C    -4.0500558   -0.5771862    0.8136712
H    -5.0263804   -1.0082727    1.0024760
C    -3.9381552    0.6617804    0.2400876
H    -4.8252424    1.2338890   -0.0111295
C    -2.6768410    1.2433246    0.0057578
C    -1.4974121    0.5051527    0.2848253
C    -1.6508332   -0.7338728    0.9404026
H    -0.7713646   -1.2730967    1.2633753
C    -2.8898548   -1.2624035    1.1994307
H    -2.9683706   -2.2124563    1.7152676
C    -2.5773185    2.5963696   -0.4192930
H    -3.4870728    3.1412239   -0.6474055
C    -1.3741895    3.2147896   -0.4364030
H    -1.2997315    4.2742019   -0.6578144
C    -0.1719488    2.4994090   -0.1734588
C    -0.2043917    1.1018437    0.0192689
C     1.0513491    3.2042560   -0.0676222
H     1.0427344    4.2819499   -0.1896997
C     2.1942091    2.5487446    0.2579577
H     3.1168527    3.0912848    0.4334727
C     2.2216473    1.1336562    0.2934990
C     1.0486931    0.3945528    0.0302412
C     3.4483363    0.4614633    0.5573939
H     4.3095794    1.0606054    0.8334846
C     3.5427346   -0.8855926    0.4749463
H     4.4731467   -1.3939704    0.7038822
C     2.4490052   -1.6474447   -0.0196319
C     1.2150704   -1.0057258   -0.3013573
C     0.2531113   -1.7434440   -1.0216591
H    -0.6541356   -1.2535051   -1.3462847
C     0.4494193   -3.0628597   -1.3413779
H    -0.3083162   -3.5944309   -1.9054060
C     1.6251726   -3.7207967   -0.9552541
H     1.7670048   -4.7687404   -1.1927019
C     2.6109872   -3.0144177   -0.3183050
H     3.5525612   -3.4902813   -0.0646367
Bq        -1.4362621660    -1.2879202974     1.1947561043
Bq        -1.4361766999    -1.2428946011     1.1730149138
Bq        -1.4360912338    -1.1978689047     1.1512737233
Bq        -1.4360057676    -1.1528432084     1.1295325328
Bq        -1.4359203015    -1.1078175120     1.1077913423
Bq        -1.4358348354    -1.0627918157     1.0860501518
Bq        -1.4357493692    -1.0177661194     1.0643089612
Bq        -1.4356639031    -0.9727404230     1.0425677707
Bq        -1.4355784369    -0.9277147267     1.0208265802
Bq        -1.4354929708    -0.8826890304     0.9990853897
Bq        -1.4354075047    -0.8376633340     0.9773441992
Bq        -1.4353220385    -0.7926376377     0.9556030087
Bq        -1.4352365724    -0.7476119414     0.9338618181
Bq        -1.4351511063    -0.7025862450     0.9121206276
Bq        -1.4350656401    -0.6575605487     0.8903794371
Bq        -1.4349801740    -0.6125348524     0.8686382466
Bq        -1.4348947078    -0.5675091560     0.8468970561
Bq        -1.4348092417    -0.5224834597     0.8251558656
Bq        -1.4347237756    -0.4774577634     0.8034146750
Bq        -1.4346383094    -0.4324320670     0.7816734845
Bq        -1.4345528433    -0.3874063707     0.7599322940
Bq        -1.4344673772    -0.3423806743     0.7381911035
Bq        -1.4343819110    -0.2973549780     0.7164499130
Bq        -1.4342964449    -0.2523292817     0.6947087225
Bq        -1.4342109787    -0.2073035853     0.6729675320
Bq        -1.4341255126    -0.1622778890     0.6512263414
Bq        -1.4340400465    -0.1172521927     0.6294851509
Bq        -1.4339545803    -0.0722264963     0.6077439604
Bq        -1.4338691142    -0.0272008000     0.5860027699
Bq        -1.4337836481     0.0178248963     0.5642615794
Bq        -1.4336981819     0.0628505927     0.5425203889
Bq        -1.4336127158     0.1078762890     0.5207791983
Bq        -1.4335272496     0.1529019853     0.4990380078
Bq        -1.4334417835     0.1979276817     0.4772968173
Bq        -1.4333563174     0.2429533780     0.4555556268
Bq        -1.4332708512     0.2879790743     0.4338144363
Bq        -1.4331853851     0.3330047707     0.4120732458
Bq        -1.4330999190     0.3780304670     0.3903320552
Bq        -1.4330144528     0.4230561634     0.3685908647
Bq        -1.4329289867     0.4680818597     0.3468496742
Bq        -1.4328435205     0.5131075560     0.3251084837
Bq        -1.4327580544     0.5581332524     0.3033672932
Bq        -1.4326725883     0.6031589487     0.2816261027
Bq        -1.4325871221     0.6481846450     0.2598849121
Bq        -1.4325016560     0.6932103414     0.2381437216
Bq        -1.4324161899     0.7382360377     0.2164025311
Bq        -1.4323307237     0.7832617340     0.1946613406
Bq        -1.4322452576     0.8282874304     0.1729201501
Bq        -1.4321597914     0.8733131267     0.1511789596
Bq        -1.4320743253     0.9183388230     0.1294377690
Bq        -1.4319888592     0.9633645194     0.1076965785
Bq        -1.4319033930     1.0083902157     0.0859553880
Bq        -1.4318179269     1.0534159120     0.0642141975
Bq        -1.4317324608     1.0984416084     0.0424730070
Bq        -1.4316469946     1.1434673047     0.0207318165
Bq        -1.4315615285     1.1884930011    -0.0010093741
Bq        -1.4314760624     1.2335186974    -0.0227505646
Bq        -1.4313905962     1.2785443937    -0.0444917551
Bq        -1.4313051301     1.3235700901    -0.0662329456
Bq        -1.4312196639     1.3685957864    -0.0879741361
Bq        -1.4311341978     1.4136214827    -0.1097153266
Bq        -1.4310487317     1.4586471791    -0.1314565171
Bq        -1.4309632655     1.5036728754    -0.1531977077
Bq        -1.4308777994     1.5486985717    -0.1749388982
Bq        -1.4307923333     1.5937242681    -0.1966800887
Bq        -1.4307068671     1.6387499644    -0.2184212792
Bq        -1.4306214010     1.6837756607    -0.2401624697
Bq        -1.4305359348     1.7288013571    -0.2619036602
Bq        -1.4304504687     1.7738270534    -0.2836448508
Bq        -1.4303650026     1.8188527497    -0.3053860413
Bq        -1.4302795364     1.8638784461    -0.3271272318
Bq        -1.4301940703     1.9089041424    -0.3488684223
Bq        -1.4301086042     1.9539298388    -0.3706096128
Bq        -1.4300231380     1.9989555351    -0.3923508033
Bq        -1.4299376719     2.0439812314    -0.4140919939
Bq        -1.4298522057     2.0890069278    -0.4358331844
Bq        -1.4297667396     2.1340326241    -0.4575743749
Bq        -1.4296812735     2.1790583204    -0.4793155654
Bq        -1.4295958073     2.2240840168    -0.5010567559
Bq        -1.3881428074    -2.2784856168     1.6732588477
Bq        -1.3880573413    -2.2334599204     1.6515176572
Bq        -1.3879718751    -2.1884342241     1.6297764666
Bq        -1.3878864090    -2.1434085278     1.6080352761
Bq        -1.3878009428    -2.0983828314     1.5862940856
Bq        -1.3877154767    -2.0533571351     1.5645528951
Bq        -1.3876300106    -2.0083314388     1.5428117046
Bq        -1.3875445444    -1.9633057424     1.5210705141
Bq        -1.3874590783    -1.9182800461     1.4993293235
Bq        -1.3873736122    -1.8732543497     1.4775881330
Bq        -1.3872881460    -1.8282286534     1.4558469425
Bq        -1.3872026799    -1.7832029571     1.4341057520
Bq        -1.3871172137    -1.7381772607     1.4123645615
Bq        -1.3870317476    -1.6931515644     1.3906233710
Bq        -1.3869462815    -1.6481258681     1.3688821804
Bq        -1.3868608153    -1.6031001717     1.3471409899
Bq        -1.3867753492    -1.5580744754     1.3253997994
Bq        -1.3866898831    -1.5130487791     1.3036586089
Bq        -1.3866044169    -1.4680230827     1.2819174184
Bq        -1.3865189508    -1.4229973864     1.2601762279
Bq        -1.3864334846    -1.3779716901     1.2384350373
Bq        -1.3863480185    -1.3329459937     1.2166938468
Bq        -1.3862625524    -1.2879202974     1.1949526563
Bq        -1.3861770862    -1.2428946011     1.1732114658
Bq        -1.3860916201    -1.1978689047     1.1514702753
Bq        -1.3860061540    -1.1528432084     1.1297290848
Bq        -1.3859206878    -1.1078175120     1.1079878942
Bq        -1.3858352217    -1.0627918157     1.0862467037
Bq        -1.3857497555    -1.0177661194     1.0645055132
Bq        -1.3856642894    -0.9727404230     1.0427643227
Bq        -1.3855788233    -0.9277147267     1.0210231322
Bq        -1.3854933571    -0.8826890304     0.9992819417
Bq        -1.3854078910    -0.8376633340     0.9775407511
Bq        -1.3853224249    -0.7926376377     0.9557995606
Bq        -1.3852369587    -0.7476119414     0.9340583701
Bq        -1.3851514926    -0.7025862450     0.9123171796
Bq        -1.3850660264    -0.6575605487     0.8905759891
Bq        -1.3849805603    -0.6125348524     0.8688347986
Bq        -1.3848950942    -0.5675091560     0.8470936081
Bq        -1.3848096280    -0.5224834597     0.8253524175
Bq        -1.3847241619    -0.4774577634     0.8036112270
Bq        -1.3846386958    -0.4324320670     0.7818700365
Bq        -1.3845532296    -0.3874063707     0.7601288460
Bq        -1.3844677635    -0.3423806743     0.7383876555
Bq        -1.3843822973    -0.2973549780     0.7166464650
Bq        -1.3842968312    -0.2523292817     0.6949052744
Bq        -1.3842113651    -0.2073035853     0.6731640839
Bq        -1.3841258989    -0.1622778890     0.6514228934
Bq        -1.3840404328    -0.1172521927     0.6296817029
Bq        -1.3839549667    -0.0722264963     0.6079405124
Bq        -1.3838695005    -0.0272008000     0.5861993219
Bq        -1.3837840344     0.0178248963     0.5644581313
Bq        -1.3836985683     0.0628505927     0.5427169408
Bq        -1.3836131021     0.1078762890     0.5209757503
Bq        -1.3835276360     0.1529019853     0.4992345598
Bq        -1.3834421698     0.1979276817     0.4774933693
Bq        -1.3833567037     0.2429533780     0.4557521788
Bq        -1.3832712376     0.2879790743     0.4340109882
Bq        -1.3831857714     0.3330047707     0.4122697977
Bq        -1.3831003053     0.3780304670     0.3905286072
Bq        -1.3830148392     0.4230561634     0.3687874167
Bq        -1.3829293730     0.4680818597     0.3470462262
Bq        -1.3828439069     0.5131075560     0.3253050357
Bq        -1.3827584407     0.5581332524     0.3035638451
Bq        -1.3826729746     0.6031589487     0.2818226546
Bq        -1.3825875085     0.6481846450     0.2600814641
Bq        -1.3825020423     0.6932103414     0.2383402736
Bq        -1.3824165762     0.7382360377     0.2165990831
Bq        -1.3823311101     0.7832617340     0.1948578926
Bq        -1.3822456439     0.8282874304     0.1731167020
Bq        -1.3821601778     0.8733131267     0.1513755115
Bq        -1.3820747116     0.9183388230     0.1296343210
Bq        -1.3819892455     0.9633645194     0.1078931305
Bq        -1.3819037794     1.0083902157     0.0861519400
Bq        -1.3818183132     1.0534159120     0.0644107495
Bq        -1.3817328471     1.0984416084     0.0426695590
Bq        -1.3816473810     1.1434673047     0.0209283684
Bq        -1.3815619148     1.1884930011    -0.0008128221
Bq        -1.3814764487     1.2335186974    -0.0225540126
Bq        -1.3813909825     1.2785443937    -0.0442952031
Bq        -1.3813055164     1.3235700901    -0.0660363936
Bq        -1.3812200503     1.3685957864    -0.0877775841
Bq        -1.3811345841     1.4136214827    -0.1095187747
Bq        -1.3810491180     1.4586471791    -0.1312599652
Bq        -1.3809636519     1.5036728754    -0.1530011557
Bq        -1.3808781857     1.5486985717    -0.1747423462
Bq        -1.3807927196     1.5937242681    -0.1964835367
Bq        -1.3807072534     1.6387499644    -0.2182247272
Bq        -1.3806217873     1.6837756607    -0.2399659178
Bq        -1.3805363212     1.7288013571    -0.2617071083
Bq        -1.3804508550     1.7738270534    -0.2834482988
Bq        -1.3803653889     1.8188527497    -0.3051894893
Bq        -1.3802799228     1.8638784461    -0.3269306798
Bq        -1.3801944566     1.9089041424    -0.3486718703
Bq        -1.3801089905     1.9539298388    -0.3704130609
Bq        -1.3800235243     1.9989555351    -0.3921542514
Bq        -1.3799380582     2.0439812314    -0.4138954419
Bq        -1.3798525921     2.0890069278    -0.4356366324
Bq        -1.3797671259     2.1340326241    -0.4573778229
Bq        -1.3796816598     2.1790583204    -0.4791190134
Bq        -1.3795961937     2.2240840168    -0.5008602040
Bq        -1.3381431937    -2.2784856168     1.6734553996
Bq        -1.3380577276    -2.2334599204     1.6517142091
Bq        -1.3379722614    -2.1884342241     1.6299730186
Bq        -1.3378867953    -2.1434085278     1.6082318281
Bq        -1.3378013292    -2.0983828314     1.5864906376
Bq        -1.3377158630    -2.0533571351     1.5647494471
Bq        -1.3376303969    -2.0083314388     1.5430082565
Bq        -1.3375449308    -1.9633057424     1.5212670660
Bq        -1.3374594646    -1.9182800461     1.4995258755
Bq        -1.3373739985    -1.8732543497     1.4777846850
Bq        -1.3372885323    -1.8282286534     1.4560434945
Bq        -1.3372030662    -1.7832029571     1.4343023040
Bq        -1.3371176001    -1.7381772607     1.4125611134
Bq        -1.3370321339    -1.6931515644     1.3908199229
Bq        -1.3369466678    -1.6481258681     1.3690787324
Bq        -1.3368612017    -1.6031001717     1.3473375419
Bq        -1.3367757355    -1.5580744754     1.3255963514
Bq        -1.3366902694    -1.5130487791     1.3038551609
Bq        -1.3366048032    -1.4680230827     1.2821139703
Bq        -1.3365193371    -1.4229973864     1.2603727798

1
2
3
4
5
6
7
8
9
10
11
12
13
14
15
16
17
18
19
20
21
22
23
24
25
26
27
28
29
30
31
32
33
34
35
36
37
38
39
40
41
42
43
44
45
46
47
48
49
50
51
52
53
54
55
56
57
58
59
60
61
62
63
64
65
66
67
68
69
70
71
72
73
74
75
76
77
78
79
80
81
82
83
84
85
86
87
88
89
90
91
92
93
94
95
96
97
98
99
100
101
102
103
104
105
106
107
108
109
110
111
112
113
114
115
116
117
118
119
120
121
122
123
124
125
126
127
128
129
130
131
132
133
134
135
136
137
138
139
140
141
142
143
144
145
146
147
148
149
150
151
152
153
154
155
156
157
158
159
160
161
162
163
164
165
166
167
168
169
170
171
172
173
174
175
176
177
178
179
180
181
182
183
184
185
186
187
188
189
190
191
192
193
194
195
196
197
198
199
200
201
202
203
204
205
206
207
208
209
210
211
212
213
214
215
216
217
218
219
220
221
222
223
224
225
226
227
228
229
230
231
232
233
234
235
236

