%nproc=8
%mem=1000MB
# rb3lyp/6-311+g** NMR geom=connectivity

Title

0 1
C    -4.0500558   -0.5771862    0.8136712
H    -5.0263804   -1.0082727    1.0024760
C    -3.9381552    0.6617804    0.2400876
H    -4.8252424    1.2338890   -0.0111295
C    -2.6768410    1.2433246    0.0057578
C    -1.4974121    0.5051527    0.2848253
C    -1.6508332   -0.7338728    0.9404026
H    -0.7713646   -1.2730967    1.2633753
C    -2.8898548   -1.2624035    1.1994307
H    -2.9683706   -2.2124563    1.7152676
C    -2.5773185    2.5963696   -0.4192930
H    -3.4870728    3.1412239   -0.6474055
C    -1.3741895    3.2147896   -0.4364030
H    -1.2997315    4.2742019   -0.6578144
C    -0.1719488    2.4994090   -0.1734588
C    -0.2043917    1.1018437    0.0192689
C     1.0513491    3.2042560   -0.0676222
H     1.0427344    4.2819499   -0.1896997
C     2.1942091    2.5487446    0.2579577
H     3.1168527    3.0912848    0.4334727
C     2.2216473    1.1336562    0.2934990
C     1.0486931    0.3945528    0.0302412
C     3.4483363    0.4614633    0.5573939
H     4.3095794    1.0606054    0.8334846
C     3.5427346   -0.8855926    0.4749463
H     4.4731467   -1.3939704    0.7038822
C     2.4490052   -1.6474447   -0.0196319
C     1.2150704   -1.0057258   -0.3013573
C     0.2531113   -1.7434440   -1.0216591
H    -0.6541356   -1.2535051   -1.3462847
C     0.4494193   -3.0628597   -1.3413779
H    -0.3083162   -3.5944309   -1.9054060
C     1.6251726   -3.7207967   -0.9552541
H     1.7670048   -4.7687404   -1.1927019
C     2.6109872   -3.0144177   -0.3183050
H     3.5525612   -3.4902813   -0.0646367
Bq        -3.5448956790     3.8958846707    -0.7202245910
Bq        -3.5444092019     3.9443545867    -0.7324896058
Bq        -3.5439227248     3.9928245027    -0.7447546205
Bq        -3.5434362477     4.0412944186    -0.7570196352
Bq        -3.5429497706     4.0897643346    -0.7692846499
Bq        -3.5424632935     4.1382342506    -0.7815496646
Bq        -3.5419768164     4.1867041665    -0.7938146793
Bq        -3.5414903392     4.2351740825    -0.8060796940
Bq        -3.5410038621     4.2836439985    -0.8183447088
Bq        -3.5396908574    -0.5633475985     0.4101383945
Bq        -3.5392043803    -0.5148776825     0.3978733798
Bq        -3.5387179032    -0.4664077665     0.3856083651
Bq        -3.5382314261    -0.4179378506     0.3733433504
Bq        -3.5377449490    -0.3694679346     0.3610783357
Bq        -3.5372584719    -0.3209980186     0.3488133210
Bq        -3.5367719948    -0.2725281027     0.3365483063
Bq        -3.5362855177    -0.2240581867     0.3242832915
Bq        -3.5357990405    -0.1755882707     0.3120182768
Bq        -3.5353125634    -0.1271183548     0.2997532621
Bq        -3.5348260863    -0.0786484388     0.2874882474
Bq        -3.5343396092    -0.0301785228     0.2752232327
Bq        -3.5338531321     0.0182913932     0.2629582180
Bq        -3.5333666550     0.0667613091     0.2506932033
Bq        -3.5328801779     0.1152312251     0.2384281885
Bq        -3.5323937008     0.1637011411     0.2261631738
Bq        -3.5319072236     0.2121710570     0.2138981591
Bq        -3.5314207465     0.2606409730     0.2016331444
Bq        -3.5309342694     0.3091108890     0.1893681297
Bq        -3.5304477923     0.3575808049     0.1771031150
Bq        -3.5299613152     0.4060507209     0.1648381003
Bq        -3.5294748381     0.4545206369     0.1525730855
Bq        -3.5289883610     0.5029905529     0.1403080708
Bq        -3.5285018839     0.5514604688     0.1280430561
Bq        -3.5280154067     0.5999303848     0.1157780414
Bq        -3.5275289296     0.6484003008     0.1035130267
Bq        -3.5270424525     0.6968702167     0.0912480120
Bq        -3.5265559754     0.7453401327     0.0789829973
Bq        -3.5260694983     0.7938100487     0.0667179826
Bq        -3.5255830212     0.8422799646     0.0544529678
Bq        -3.5250965441     0.8907498806     0.0421879531
Bq        -3.5246100670     0.9392197966     0.0299229384
Bq        -3.5241235898     0.9876897125     0.0176579237
Bq        -3.5236371127     1.0361596285     0.0053929090
Bq        -3.5231506356     1.0846295445    -0.0068721057
Bq        -3.5226641585     1.1330994605    -0.0191371204
Bq        -3.5221776814     1.1815693764    -0.0314021352
Bq        -3.5216912043     1.2300392924    -0.0436671499
Bq        -3.5212047272     1.2785092084    -0.0559321646
Bq        -3.5207182501     1.3269791243    -0.0681971793
Bq        -3.5202317729     1.3754490403    -0.0804621940
Bq        -3.5197452958     1.4239189563    -0.0927272087
Bq        -3.5192588187     1.4723888722    -0.1049922234
Bq        -3.5187723416     1.5208587882    -0.1172572382
Bq        -3.5182858645     1.5693287042    -0.1295222529
Bq        -3.5177993874     1.6177986202    -0.1417872676
Bq        -3.5173129103     1.6662685361    -0.1540522823
Bq        -3.5168264332     1.7147384521    -0.1663172970
Bq        -3.5163399560     1.7632083681    -0.1785823117
Bq        -3.5158534789     1.8116782840    -0.1908473264
Bq        -3.5153670018     1.8601482000    -0.2031123411
Bq        -3.5148805247     1.9086181160    -0.2153773559
Bq        -3.5143940476     1.9570880319    -0.2276423706
Bq        -3.5139075705     2.0055579479    -0.2399073853
Bq        -3.5134210934     2.0540278639    -0.2521724000
Bq        -3.5129346163     2.1024977798    -0.2644374147
Bq        -3.5124481392     2.1509676958    -0.2767024294
Bq        -3.5119616620     2.1994376118    -0.2889674441
Bq        -3.5114751849     2.2479075278    -0.3012324589
Bq        -3.5109887078     2.2963774437    -0.3134974736
Bq        -3.5105022307     2.3448473597    -0.3257624883
Bq        -3.5100157536     2.3933172757    -0.3380275030
Bq        -3.5095292765     2.4417871916    -0.3502925177
Bq        -3.5090427994     2.4902571076    -0.3625575324
Bq        -3.5085563223     2.5387270236    -0.3748225471
Bq        -3.5080698451     2.5871969395    -0.3870875618
Bq        -3.5075833680     2.6356668555    -0.3993525766
Bq        -3.5070968909     2.6841367715    -0.4116175913
Bq        -3.5066104138     2.7326066875    -0.4238826060
Bq        -3.5061239367     2.7810766034    -0.4361476207
Bq        -3.5056374596     2.8295465194    -0.4484126354
Bq        -3.5051509825     2.8780164354    -0.4606776501
Bq        -3.5046645054     2.9264863513    -0.4729426648
Bq        -3.5041780282     2.9749562673    -0.4852076796
Bq        -3.5036915511     3.0234261833    -0.4974726943
Bq        -3.5032050740     3.0718960992    -0.5097377090
Bq        -3.5027185969     3.1203660152    -0.5220027237
Bq        -3.5022321198     3.1688359312    -0.5342677384
Bq        -3.5017456427     3.2173058471    -0.5465327531
Bq        -3.5012591656     3.2657757631    -0.5587977678
Bq        -3.5007726885     3.3142456791    -0.5710627826
Bq        -3.5002862113     3.3627155951    -0.5833277973
Bq        -3.4997997342     3.4111855110    -0.5955928120
Bq        -3.4993132571     3.4596554270    -0.6078578267
Bq        -3.4988267800     3.5081253430    -0.6201228414
Bq        -3.4983403029     3.5565952589    -0.6323878561
Bq        -3.4978538258     3.6050651749    -0.6446528708
Bq        -3.4973673487     3.6535350909    -0.6569178855
Bq        -3.4968808716     3.7020050068    -0.6691829003
Bq        -3.4963943944     3.7504749228    -0.6814479150
Bq        -3.4959079173     3.7989448388    -0.6937129297
Bq        -3.4954214402     3.8474147548    -0.7059779444
Bq        -3.4949349631     3.8958846707    -0.7182429591
Bq        -3.4944484860     3.9443545867    -0.7305079738
Bq        -3.4939620089     3.9928245027    -0.7427729885
Bq        -3.4934755318     4.0412944186    -0.7550380033
Bq        -3.4929890547     4.0897643346    -0.7673030180
Bq        -3.4925025776     4.1382342506    -0.7795680327
Bq        -3.4920161004     4.1867041665    -0.7918330474
Bq        -3.4915296233     4.2351740825    -0.8040980621
Bq        -3.4910431462     4.2836439985    -0.8163630768
Bq        -3.4897301415    -0.5633475985     0.4121200265
Bq        -3.4892436644    -0.5148776825     0.3998550118
Bq        -3.4887571873    -0.4664077665     0.3875899970
Bq        -3.4882707102    -0.4179378506     0.3753249823
Bq        -3.4877842331    -0.3694679346     0.3630599676
Bq        -3.4872977560    -0.3209980186     0.3507949529
Bq        -3.4868112788    -0.2725281027     0.3385299382
Bq        -3.4863248017    -0.2240581867     0.3262649235
Bq        -3.4858383246    -0.1755882707     0.3139999088
Bq        -3.4853518475    -0.1271183548     0.3017348940
Bq        -3.4848653704    -0.0786484388     0.2894698793
Bq        -3.4843788933    -0.0301785228     0.2772048646
Bq        -3.4838924162     0.0182913932     0.2649398499
Bq        -3.4834059391     0.0667613091     0.2526748352
Bq        -3.4829194619     0.1152312251     0.2404098205
Bq        -3.4824329848     0.1637011411     0.2281448058
Bq        -3.4819465077     0.2121710570     0.2158797910
Bq        -3.4814600306     0.2606409730     0.2036147763
Bq        -3.4809735535     0.3091108890     0.1913497616
Bq        -3.4804870764     0.3575808049     0.1790847469
Bq        -3.4800005993     0.4060507209     0.1668197322
Bq        -3.4795141222     0.4545206369     0.1545547175
Bq        -3.4790276451     0.5029905529     0.1422897028
Bq        -3.4785411679     0.5514604688     0.1300246881
Bq        -3.4780546908     0.5999303848     0.1177596733
Bq        -3.4775682137     0.6484003008     0.1054946586
Bq        -3.4770817366     0.6968702167     0.0932296439
Bq        -3.4765952595     0.7453401327     0.0809646292
Bq        -3.4761087824     0.7938100487     0.0686996145
Bq        -3.4756223053     0.8422799646     0.0564345998
Bq        -3.4751358282     0.8907498806     0.0441695851
Bq        -3.4746493510     0.9392197966     0.0319045703
Bq        -3.4741628739     0.9876897125     0.0196395556
Bq        -3.4736763968     1.0361596285     0.0073745409
Bq        -3.4731899197     1.0846295445    -0.0048904738
Bq        -3.4727034426     1.1330994605    -0.0171554885
Bq        -3.4722169655     1.1815693764    -0.0294205032
Bq        -3.4717304884     1.2300392924    -0.0416855179
Bq        -3.4712440113     1.2785092084    -0.0539505327
Bq        -3.4707575341     1.3269791243    -0.0662155474
Bq        -3.4702710570     1.3754490403    -0.0784805621
Bq        -3.4697845799     1.4239189563    -0.0907455768
Bq        -3.4692981028     1.4723888722    -0.1030105915
Bq        -3.4688116257     1.5208587882    -0.1152756062
Bq        -3.4683251486     1.5693287042    -0.1275406209
Bq        -3.4678386715     1.6177986202    -0.1398056356
Bq        -3.4673521944     1.6662685361    -0.1520706504
Bq        -3.4668657172     1.7147384521    -0.1643356651
Bq        -3.4663792401     1.7632083681    -0.1766006798
Bq        -3.4658927630     1.8116782840    -0.1888656945
Bq        -3.4654062859     1.8601482000    -0.2011307092
Bq        -3.4649198088     1.9086181160    -0.2133957239
Bq        -3.4644333317     1.9570880319    -0.2256607386
Bq        -3.4639468546     2.0055579479    -0.2379257534
Bq        -3.4634603775     2.0540278639    -0.2501907681
Bq        -3.4629739003     2.1024977798    -0.2624557828
Bq        -3.4624874232     2.1509676958    -0.2747207975
Bq        -3.4620009461     2.1994376118    -0.2869858122
Bq        -3.4615144690     2.2479075278    -0.2992508269
Bq        -3.4610279919     2.2963774437    -0.3115158416
Bq        -3.4605415148     2.3448473597    -0.3237808563
Bq        -3.4600550377     2.3933172757    -0.3360458711
Bq        -3.4595685606     2.4417871916    -0.3483108858
Bq        -3.4590820834     2.4902571076    -0.3605759005
Bq        -3.4585956063     2.5387270236    -0.3728409152
Bq        -3.4581091292     2.5871969395    -0.3851059299
Bq        -3.4576226521     2.6356668555    -0.3973709446
Bq        -3.4571361750     2.6841367715    -0.4096359593
Bq        -3.4566496979     2.7326066875    -0.4219009741
Bq        -3.4561632208     2.7810766034    -0.4341659888
Bq        -3.4556767437     2.8295465194    -0.4464310035
Bq        -3.4551902666     2.8780164354    -0.4586960182
Bq        -3.4547037894     2.9264863513    -0.4709610329
Bq        -3.4542173123     2.9749562673    -0.4832260476
Bq        -3.4537308352     3.0234261833    -0.4954910623
Bq        -3.4532443581     3.0718960992    -0.5077560771
Bq        -3.4527578810     3.1203660152    -0.5200210918
Bq        -3.4522714039     3.1688359312    -0.5322861065
Bq        -3.4517849268     3.2173058471    -0.5445511212
Bq        -3.4512984497     3.2657757631    -0.5568161359
Bq        -3.4508119725     3.3142456791    -0.5690811506
Bq        -3.4503254954     3.3627155951    -0.5813461653
Bq        -3.4498390183     3.4111855110    -0.5936111800
Bq        -3.4493525412     3.4596554270    -0.6058761948
Bq        -3.4488660641     3.5081253430    -0.6181412095
Bq        -3.4483795870     3.5565952589    -0.6304062242
Bq        -3.4478931099     3.6050651749    -0.6426712389
Bq        -3.4474066328     3.6535350909    -0.6549362536
Bq        -3.4469201556     3.7020050068    -0.6672012683
Bq        -3.4464336785     3.7504749228    -0.6794662830

1
2
3
4
5
6
7
8
9
10
11
12
13
14
15
16
17
18
19
20
21
22
23
24
25
26
27
28
29
30
31
32
33
34
35
36
37
38
39
40
41
42
43
44
45
46
47
48
49
50
51
52
53
54
55
56
57
58
59
60
61
62
63
64
65
66
67
68
69
70
71
72
73
74
75
76
77
78
79
80
81
82
83
84
85
86
87
88
89
90
91
92
93
94
95
96
97
98
99
100
101
102
103
104
105
106
107
108
109
110
111
112
113
114
115
116
117
118
119
120
121
122
123
124
125
126
127
128
129
130
131
132
133
134
135
136
137
138
139
140
141
142
143
144
145
146
147
148
149
150
151
152
153
154
155
156
157
158
159
160
161
162
163
164
165
166
167
168
169
170
171
172
173
174
175
176
177
178
179
180
181
182
183
184
185
186
187
188
189
190
191
192
193
194
195
196
197
198
199
200
201
202
203
204
205
206
207
208
209
210
211
212
213
214
215
216
217
218
219
220
221
222
223
224
225
226
227
228
229
230
231
232
233
234
235
236

