%nproc=8
%mem=1000MB
# rb3lyp/6-311+g** NMR geom=connectivity

Title

0 1
C    -4.0500558   -0.5771862    0.8136712
H    -5.0263804   -1.0082727    1.0024760
C    -3.9381552    0.6617804    0.2400876
H    -4.8252424    1.2338890   -0.0111295
C    -2.6768410    1.2433246    0.0057578
C    -1.4974121    0.5051527    0.2848253
C    -1.6508332   -0.7338728    0.9404026
H    -0.7713646   -1.2730967    1.2633753
C    -2.8898548   -1.2624035    1.1994307
H    -2.9683706   -2.2124563    1.7152676
C    -2.5773185    2.5963696   -0.4192930
H    -3.4870728    3.1412239   -0.6474055
C    -1.3741895    3.2147896   -0.4364030
H    -1.2997315    4.2742019   -0.6578144
C    -0.1719488    2.4994090   -0.1734588
C    -0.2043917    1.1018437    0.0192689
C     1.0513491    3.2042560   -0.0676222
H     1.0427344    4.2819499   -0.1896997
C     2.1942091    2.5487446    0.2579577
H     3.1168527    3.0912848    0.4334727
C     2.2216473    1.1336562    0.2934990
C     1.0486931    0.3945528    0.0302412
C     3.4483363    0.4614633    0.5573939
H     4.3095794    1.0606054    0.8334846
C     3.5427346   -0.8855926    0.4749463
H     4.4731467   -1.3939704    0.7038822
C     2.4490052   -1.6474447   -0.0196319
C     1.2150704   -1.0057258   -0.3013573
C     0.2531113   -1.7434440   -1.0216591
H    -0.6541356   -1.2535051   -1.3462847
C     0.4494193   -3.0628597   -1.3413779
H    -0.3083162   -3.5944309   -1.9054060
C     1.6251726   -3.7207967   -0.9552541
H     1.7670048   -4.7687404   -1.1927019
C     2.6109872   -3.0144177   -0.3183050
H     3.5525612   -3.4902813   -0.0646367
Bq         0.9691514507     1.0285932225     0.0009146601
Bq         0.9673059255     1.0780845695     0.0077849299
Bq         0.9654604002     1.1275759165     0.0146551997
Bq         0.9636148749     1.1770672635     0.0215254695
Bq         0.9617693497     1.2265586105     0.0283957392
Bq         0.9599238244     1.2760499576     0.0352660090
Bq         0.9580782991     1.3255413046     0.0421362788
Bq         0.9562327739     1.3750326516     0.0490065486
Bq         0.9543872486     1.4245239986     0.0558768183
Bq         0.9525417233     1.4740153456     0.0627470881
Bq         0.9506961981     1.5235066926     0.0696173579
Bq         0.9488506728     1.5729980397     0.0764876277
Bq         0.9470051475     1.6224893867     0.0833578975
Bq         0.9451596223     1.6719807337     0.0902281672
Bq         0.9433140970     1.7214720807     0.0970984370
Bq         0.9414685717     1.7709634277     0.1039687068
Bq         0.9396230465     1.8204547748     0.1108389766
Bq         0.9377775212     1.8699461218     0.1177092464
Bq         0.9359319959     1.9194374688     0.1245795161
Bq         0.9340864707     1.9689288158     0.1314497859
Bq         0.9322409454     2.0184201628     0.1383200557
Bq         0.9303954201     2.0679115098     0.1451903255
Bq         0.9285498949     2.1174028569     0.1520605953
Bq         0.9267043696     2.1668942039     0.1589308650
Bq         0.9248588443     2.2163855509     0.1658011348
Bq         1.1576994961    -2.7327491509    -0.5082544522
Bq         1.1558539708    -2.6832578039    -0.5013841824
Bq         1.1540084456    -2.6337664569    -0.4945139127
Bq         1.1521629203    -2.5842751098    -0.4876436429
Bq         1.1503173950    -2.5347837628    -0.4807733731
Bq         1.1484718698    -2.4852924158    -0.4739031033
Bq         1.1466263445    -2.4358010688    -0.4670328336
Bq         1.1447808192    -2.3863097218    -0.4601625638
Bq         1.1429352940    -2.3368183748    -0.4532922940
Bq         1.1410897687    -2.2873270277    -0.4464220242
Bq         1.1392442434    -2.2378356807    -0.4395517544
Bq         1.1373987182    -2.1883443337    -0.4326814847
Bq         1.1355531929    -2.1388529867    -0.4258112149
Bq         1.1337076676    -2.0893616397    -0.4189409451
Bq         1.1318621424    -2.0398702926    -0.4120706753
Bq         1.1300166171    -1.9903789456    -0.4052004055
Bq         1.1281710918    -1.9408875986    -0.3983301358
Bq         1.1263255666    -1.8913962516    -0.3914598660
Bq         1.1244800413    -1.8419049046    -0.3845895962
Bq         1.1226345160    -1.7924135576    -0.3777193264
Bq         1.1207889908    -1.7429222105    -0.3708490566
Bq         1.1189434655    -1.6934308635    -0.3639787869
Bq         1.1170979402    -1.6439395165    -0.3571085171
Bq         1.1152524150    -1.5944481695    -0.3502382473
Bq         1.1134068897    -1.5449568225    -0.3433679775
Bq         1.1115613644    -1.4954654754    -0.3364977077
Bq         1.1097158392    -1.4459741284    -0.3296274380
Bq         1.1078703139    -1.3964827814    -0.3227571682
Bq         1.1060247886    -1.3469914344    -0.3158868984
Bq         1.1041792633    -1.2975000874    -0.3090166286
Bq         1.1023337381    -1.2480087404    -0.3021463588
Bq         1.1004882128    -1.1985173933    -0.2952760891
Bq         1.0986426875    -1.1490260463    -0.2884058193
Bq         1.0967971623    -1.0995346993    -0.2815355495
Bq         1.0949516370    -1.0500433523    -0.2746652797
Bq         1.0931061117    -1.0005520053    -0.2677950099
Bq         1.0912605865    -0.9510606583    -0.2609247402
Bq         1.0894150612    -0.9015693112    -0.2540544704
Bq         1.0875695359    -0.8520779642    -0.2471842006
Bq         1.0857240107    -0.8025866172    -0.2403139308
Bq         1.0838784854    -0.7530952702    -0.2334436611
Bq         1.0820329601    -0.7036039232    -0.2265733913
Bq         1.0801874349    -0.6541125761    -0.2197031215
Bq         1.0783419096    -0.6046212291    -0.2128328517
Bq         1.0764963843    -0.5551298821    -0.2059625819
Bq         1.0746508591    -0.5056385351    -0.1990923122
Bq         1.0728053338    -0.4561471881    -0.1922220424
Bq         1.0709598085    -0.4066558411    -0.1853517726
Bq         1.0691142833    -0.3571644940    -0.1784815028
Bq         1.0672687580    -0.3076731470    -0.1716112330
Bq         1.0654232327    -0.2581818000    -0.1647409633
Bq         1.0635777075    -0.2086904530    -0.1578706935
Bq         1.0617321822    -0.1591991060    -0.1510004237
Bq         1.0598866569    -0.1097077589    -0.1441301539
Bq         1.0580411317    -0.0602164119    -0.1372598841
Bq         1.0561956064    -0.0107250649    -0.1303896144
Bq         1.0543500811     0.0387662821    -0.1235193446
Bq         1.0525045559     0.0882576291    -0.1166490748
Bq         1.0506590306     0.1377489761    -0.1097788050
Bq         1.0488135053     0.1872403232    -0.1029085352
Bq         1.0469679801     0.2367316702    -0.0960382655
Bq         1.0451224548     0.2862230172    -0.0891679957
Bq         1.0432769295     0.3357143642    -0.0822977259
Bq         1.0414314042     0.3852057112    -0.0754274561
Bq         1.0395858790     0.4346970583    -0.0685571863
Bq         1.0377403537     0.4841884053    -0.0616869166
Bq         1.0358948284     0.5336797523    -0.0548166468
Bq         1.0340493032     0.5831710993    -0.0479463770
Bq         1.0322037779     0.6326624463    -0.0410761072
Bq         1.0303582526     0.6821537933    -0.0342058374
Bq         1.0285127274     0.7316451404    -0.0273355677
Bq         1.0266672021     0.7811364874    -0.0204652979
Bq         1.0248216768     0.8306278344    -0.0135950281
Bq         1.0229761516     0.8801191814    -0.0067247583
Bq         1.0211306263     0.9296105284     0.0001455114
Bq         1.0192851010     0.9791018754     0.0070157812
Bq         1.0174395758     1.0285932225     0.0138860510
Bq         1.0155940505     1.0780845695     0.0207563208
Bq         1.0137485252     1.1275759165     0.0276265906
Bq         1.0119030000     1.1770672635     0.0344968603
Bq         1.0100574747     1.2265586105     0.0413671301
Bq         1.0082119494     1.2760499576     0.0482373999
Bq         1.0063664242     1.3255413046     0.0551076697
Bq         1.0045208989     1.3750326516     0.0619779395
Bq         1.0026753736     1.4245239986     0.0688482092
Bq         1.0008298484     1.4740153456     0.0757184790
Bq         0.9989843231     1.5235066926     0.0825887488
Bq         0.9971387978     1.5729980397     0.0894590186
Bq         0.9952932726     1.6224893867     0.0963292884
Bq         0.9934477473     1.6719807337     0.1031995581
Bq         0.9916022220     1.7214720807     0.1100698279
Bq         0.9897566968     1.7709634277     0.1169400977
Bq         0.9879111715     1.8204547748     0.1238103675
Bq         0.9860656462     1.8699461218     0.1306806373
Bq         0.9842201210     1.9194374688     0.1375509070
Bq         0.9823745957     1.9689288158     0.1444211768
Bq         0.9805290704     2.0184201628     0.1512914466
Bq         0.9786835451     2.0679115098     0.1581617164
Bq         0.9768380199     2.1174028569     0.1650319862
Bq         0.9749924946     2.1668942039     0.1719022559
Bq         0.9731469693     2.2163855509     0.1787725257
Bq         1.2059876211    -2.7327491509    -0.4952830613
Bq         1.2041420959    -2.6832578039    -0.4884127916
Bq         1.2022965706    -2.6337664569    -0.4815425218
Bq         1.2004510453    -2.5842751098    -0.4746722520
Bq         1.1986055201    -2.5347837628    -0.4678019822
Bq         1.1967599948    -2.4852924158    -0.4609317124
Bq         1.1949144695    -2.4358010688    -0.4540614427
Bq         1.1930689443    -2.3863097218    -0.4471911729
Bq         1.1912234190    -2.3368183748    -0.4403209031
Bq         1.1893778937    -2.2873270277    -0.4334506333
Bq         1.1875323685    -2.2378356807    -0.4265803635
Bq         1.1856868432    -2.1883443337    -0.4197100938
Bq         1.1838413179    -2.1388529867    -0.4128398240
Bq         1.1819957927    -2.0893616397    -0.4059695542
Bq         1.1801502674    -2.0398702926    -0.3990992844
Bq         1.1783047421    -1.9903789456    -0.3922290146
Bq         1.1764592169    -1.9408875986    -0.3853587449
Bq         1.1746136916    -1.8913962516    -0.3784884751
Bq         1.1727681663    -1.8419049046    -0.3716182053
Bq         1.1709226411    -1.7924135576    -0.3647479355
Bq         1.1690771158    -1.7429222105    -0.3578776657
Bq         1.1672315905    -1.6934308635    -0.3510073960
Bq         1.1653860652    -1.6439395165    -0.3441371262
Bq         1.1635405400    -1.5944481695    -0.3372668564
Bq         1.1616950147    -1.5449568225    -0.3303965866
Bq         1.1598494894    -1.4954654754    -0.3235263168
Bq         1.1580039642    -1.4459741284    -0.3166560471
Bq         1.1561584389    -1.3964827814    -0.3097857773
Bq         1.1543129136    -1.3469914344    -0.3029155075
Bq         1.1524673884    -1.2975000874    -0.2960452377
Bq         1.1506218631    -1.2480087404    -0.2891749680
Bq         1.1487763378    -1.1985173933    -0.2823046982
Bq         1.1469308126    -1.1490260463    -0.2754344284
Bq         1.1450852873    -1.0995346993    -0.2685641586
Bq         1.1432397620    -1.0500433523    -0.2616938888
Bq         1.1413942368    -1.0005520053    -0.2548236191
Bq         1.1395487115    -0.9510606583    -0.2479533493
Bq         1.1377031862    -0.9015693112    -0.2410830795
Bq         1.1358576610    -0.8520779642    -0.2342128097
Bq         1.1340121357    -0.8025866172    -0.2273425399
Bq         1.1321666104    -0.7530952702    -0.2204722702
Bq         1.1303210852    -0.7036039232    -0.2136020004
Bq         1.1284755599    -0.6541125761    -0.2067317306
Bq         1.1266300346    -0.6046212291    -0.1998614608
Bq         1.1247845094    -0.5551298821    -0.1929911910
Bq         1.1229389841    -0.5056385351    -0.1861209213
Bq         1.1210934588    -0.4561471881    -0.1792506515
Bq         1.1192479336    -0.4066558411    -0.1723803817
Bq         1.1174024083    -0.3571644940    -0.1655101119
Bq         1.1155568830    -0.3076731470    -0.1586398421
Bq         1.1137113578    -0.2581818000    -0.1517695724
Bq         1.1118658325    -0.2086904530    -0.1448993026
Bq         1.1100203072    -0.1591991060    -0.1380290328
Bq         1.1081747819    -0.1097077589    -0.1311587630
Bq         1.1063292567    -0.0602164119    -0.1242884932
Bq         1.1044837314    -0.0107250649    -0.1174182235
Bq         1.1026382061     0.0387662821    -0.1105479537
Bq         1.1007926809     0.0882576291    -0.1036776839
Bq         1.0989471556     0.1377489761    -0.0968074141
Bq         1.0971016303     0.1872403232    -0.0899371443
Bq         1.0952561051     0.2367316702    -0.0830668746
Bq         1.0934105798     0.2862230172    -0.0761966048
Bq         1.0915650545     0.3357143642    -0.0693263350
Bq         1.0897195293     0.3852057112    -0.0624560652
Bq         1.0878740040     0.4346970583    -0.0555857955
Bq         1.0860284787     0.4841884053    -0.0487155257
Bq         1.0841829535     0.5336797523    -0.0418452559
Bq         1.0823374282     0.5831710993    -0.0349749861
Bq         1.0804919029     0.6326624463    -0.0281047163
Bq         1.0786463777     0.6821537933    -0.0212344466
Bq         1.0768008524     0.7316451404    -0.0143641768
Bq         1.0749553271     0.7811364874    -0.0074939070
Bq         1.0731098019     0.8306278344    -0.0006236372
Bq         1.0712642766     0.8801191814     0.0062466326

1
2
3
4
5
6
7
8
9
10
11
12
13
14
15
16
17
18
19
20
21
22
23
24
25
26
27
28
29
30
31
32
33
34
35
36
37
38
39
40
41
42
43
44
45
46
47
48
49
50
51
52
53
54
55
56
57
58
59
60
61
62
63
64
65
66
67
68
69
70
71
72
73
74
75
76
77
78
79
80
81
82
83
84
85
86
87
88
89
90
91
92
93
94
95
96
97
98
99
100
101
102
103
104
105
106
107
108
109
110
111
112
113
114
115
116
117
118
119
120
121
122
123
124
125
126
127
128
129
130
131
132
133
134
135
136
137
138
139
140
141
142
143
144
145
146
147
148
149
150
151
152
153
154
155
156
157
158
159
160
161
162
163
164
165
166
167
168
169
170
171
172
173
174
175
176
177
178
179
180
181
182
183
184
185
186
187
188
189
190
191
192
193
194
195
196
197
198
199
200
201
202
203
204
205
206
207
208
209
210
211
212
213
214
215
216
217
218
219
220
221
222
223
224
225
226
227
228
229
230
231
232
233
234
235
236

