%nproc=8
%mem=1000MB
# rb3lyp/6-311+g** NMR geom=connectivity

Title

0 1
C    -4.0500558   -0.5771862    0.8136712
H    -5.0263804   -1.0082727    1.0024760
C    -3.9381552    0.6617804    0.2400876
H    -4.8252424    1.2338890   -0.0111295
C    -2.6768410    1.2433246    0.0057578
C    -1.4974121    0.5051527    0.2848253
C    -1.6508332   -0.7338728    0.9404026
H    -0.7713646   -1.2730967    1.2633753
C    -2.8898548   -1.2624035    1.1994307
H    -2.9683706   -2.2124563    1.7152676
C    -2.5773185    2.5963696   -0.4192930
H    -3.4870728    3.1412239   -0.6474055
C    -1.3741895    3.2147896   -0.4364030
H    -1.2997315    4.2742019   -0.6578144
C    -0.1719488    2.4994090   -0.1734588
C    -0.2043917    1.1018437    0.0192689
C     1.0513491    3.2042560   -0.0676222
H     1.0427344    4.2819499   -0.1896997
C     2.1942091    2.5487446    0.2579577
H     3.1168527    3.0912848    0.4334727
C     2.2216473    1.1336562    0.2934990
C     1.0486931    0.3945528    0.0302412
C     3.4483363    0.4614633    0.5573939
H     4.3095794    1.0606054    0.8334846
C     3.5427346   -0.8855926    0.4749463
H     4.4731467   -1.3939704    0.7038822
C     2.4490052   -1.6474447   -0.0196319
C     1.2150704   -1.0057258   -0.3013573
C     0.2531113   -1.7434440   -1.0216591
H    -0.6541356   -1.2535051   -1.3462847
C     0.4494193   -3.0628597   -1.3413779
H    -0.3083162   -3.5944309   -1.9054060
C     1.6251726   -3.7207967   -0.9552541
H     1.7670048   -4.7687404   -1.1927019
C     2.6109872   -3.0144177   -0.3183050
H     3.5525612   -3.4902813   -0.0646367
Bq        -0.8372923956    -1.8282286534     1.4580090142
Bq        -0.8372069295    -1.7832029571     1.4362678237
Bq        -0.8371214634    -1.7381772607     1.4145266332
Bq        -0.8370359972    -1.6931515644     1.3927854426
Bq        -0.8369505311    -1.6481258681     1.3710442521
Bq        -0.8368650649    -1.6031001717     1.3493030616
Bq        -0.8367795988    -1.5580744754     1.3275618711
Bq        -0.8366941327    -1.5130487791     1.3058206806
Bq        -0.8366086665    -1.4680230827     1.2840794901
Bq        -0.8365232004    -1.4229973864     1.2623382995
Bq        -0.8364377343    -1.3779716901     1.2405971090
Bq        -0.8363522681    -1.3329459937     1.2188559185
Bq        -0.8362668020    -1.2879202974     1.1971147280
Bq        -0.8361813358    -1.2428946011     1.1753735375
Bq        -0.8360958697    -1.1978689047     1.1536323470
Bq        -0.8360104036    -1.1528432084     1.1318911564
Bq        -0.8359249374    -1.1078175120     1.1101499659
Bq        -0.8358394713    -1.0627918157     1.0884087754
Bq        -0.8357540052    -1.0177661194     1.0666675849
Bq        -0.8356685390    -0.9727404230     1.0449263944
Bq        -0.8355830729    -0.9277147267     1.0231852039
Bq        -0.8354976067    -0.8826890304     1.0014440133
Bq        -0.8354121406    -0.8376633340     0.9797028228
Bq        -0.8353266745    -0.7926376377     0.9579616323
Bq        -0.8352412083    -0.7476119414     0.9362204418
Bq        -0.8351557422    -0.7025862450     0.9144792513
Bq        -0.8350702761    -0.6575605487     0.8927380608
Bq        -0.8349848099    -0.6125348524     0.8709968703
Bq        -0.8348993438    -0.5675091560     0.8492556797
Bq        -0.8348138776    -0.5224834597     0.8275144892
Bq        -0.8347284115    -0.4774577634     0.8057732987
Bq        -0.8346429454    -0.4324320670     0.7840321082
Bq        -0.8345574792    -0.3874063707     0.7622909177
Bq        -0.8344720131    -0.3423806743     0.7405497272
Bq        -0.8343865470    -0.2973549780     0.7188085366
Bq        -0.8343010808    -0.2523292817     0.6970673461
Bq        -0.8342156147    -0.2073035853     0.6753261556
Bq        -0.8341301485    -0.1622778890     0.6535849651
Bq        -0.8340446824    -0.1172521927     0.6318437746
Bq        -0.8339592163    -0.0722264963     0.6101025841
Bq        -0.8338737501    -0.0272008000     0.5883613935
Bq        -0.8337882840     0.0178248963     0.5666202030
Bq        -0.8337028179     0.0628505927     0.5448790125
Bq        -0.8336173517     0.1078762890     0.5231378220
Bq        -0.8335318856     0.1529019853     0.5013966315
Bq        -0.8334464194     0.1979276817     0.4796554410
Bq        -0.8333609533     0.2429533780     0.4579142504
Bq        -0.8332754872     0.2879790743     0.4361730599
Bq        -0.8331900210     0.3330047707     0.4144318694
Bq        -0.8331045549     0.3780304670     0.3926906789
Bq        -0.8330190888     0.4230561634     0.3709494884
Bq        -0.8329336226     0.4680818597     0.3492082979
Bq        -0.8328481565     0.5131075560     0.3274671073
Bq        -0.8327626904     0.5581332524     0.3057259168
Bq        -0.8326772242     0.6031589487     0.2839847263
Bq        -0.8325917581     0.6481846450     0.2622435358
Bq        -0.8325062919     0.6932103414     0.2405023453
Bq        -0.8324208258     0.7382360377     0.2187611548
Bq        -0.8323353597     0.7832617340     0.1970199642
Bq        -0.8322498935     0.8282874304     0.1752787737
Bq        -0.8321644274     0.8733131267     0.1535375832
Bq        -0.8320789613     0.9183388230     0.1317963927
Bq        -0.8319934951     0.9633645194     0.1100552022
Bq        -0.8319080290     1.0083902157     0.0883140117
Bq        -0.8318225628     1.0534159120     0.0665728212
Bq        -0.8317370967     1.0984416084     0.0448316306
Bq        -0.8316516306     1.1434673047     0.0230904401
Bq        -0.8315661644     1.1884930011     0.0013492496
Bq        -0.8314806983     1.2335186974    -0.0203919409
Bq        -0.8313952322     1.2785443937    -0.0421331314
Bq        -0.8313097660     1.3235700901    -0.0638743219
Bq        -0.8312242999     1.3685957864    -0.0856155125
Bq        -0.8311388337     1.4136214827    -0.1073567030
Bq        -0.8310533676     1.4586471791    -0.1290978935
Bq        -0.8309679015     1.5036728754    -0.1508390840
Bq        -0.8308824353     1.5486985717    -0.1725802745
Bq        -0.8307969692     1.5937242681    -0.1943214650
Bq        -0.8307115031     1.6387499644    -0.2160626556
Bq        -0.8306260369     1.6837756607    -0.2378038461
Bq        -0.8305405708     1.7288013571    -0.2595450366
Bq        -0.8304551046     1.7738270534    -0.2812862271
Bq        -0.8303696385     1.8188527497    -0.3030274176
Bq        -0.8302841724     1.8638784461    -0.3247686081
Bq        -0.8301987062     1.9089041424    -0.3465097987
Bq        -0.8301132401     1.9539298388    -0.3682509892
Bq        -0.8300277740     1.9989555351    -0.3899921797
Bq        -0.8299423078     2.0439812314    -0.4117333702
Bq        -0.8298568417     2.0890069278    -0.4334745607
Bq        -0.8297713755     2.1340326241    -0.4552157512
Bq        -0.8296859094     2.1790583204    -0.4769569418
Bq        -0.8296004433     2.2240840168    -0.4986981323
Bq        -0.7881474433    -2.2784856168     1.6756174713
Bq        -0.7880619772    -2.2334599204     1.6538762808
Bq        -0.7879765111    -2.1884342241     1.6321350903
Bq        -0.7878910449    -2.1434085278     1.6103938998
Bq        -0.7878055788    -2.0983828314     1.5886527093
Bq        -0.7877201126    -2.0533571351     1.5669115187
Bq        -0.7876346465    -2.0083314388     1.5451703282
Bq        -0.7875491804    -1.9633057424     1.5234291377
Bq        -0.7874637142    -1.9182800461     1.5016879472
Bq        -0.7873782481    -1.8732543497     1.4799467567
Bq        -0.7872927820    -1.8282286534     1.4582055662
Bq        -0.7872073158    -1.7832029571     1.4364643756
Bq        -0.7871218497    -1.7381772607     1.4147231851
Bq        -0.7870363835    -1.6931515644     1.3929819946
Bq        -0.7869509174    -1.6481258681     1.3712408041
Bq        -0.7868654513    -1.6031001717     1.3494996136
Bq        -0.7867799851    -1.5580744754     1.3277584231
Bq        -0.7866945190    -1.5130487791     1.3060172325
Bq        -0.7866090529    -1.4680230827     1.2842760420
Bq        -0.7865235867    -1.4229973864     1.2625348515
Bq        -0.7864381206    -1.3779716901     1.2407936610
Bq        -0.7863526544    -1.3329459937     1.2190524705
Bq        -0.7862671883    -1.2879202974     1.1973112800
Bq        -0.7861817222    -1.2428946011     1.1755700894
Bq        -0.7860962560    -1.1978689047     1.1538288989
Bq        -0.7860107899    -1.1528432084     1.1320877084
Bq        -0.7859253238    -1.1078175120     1.1103465179
Bq        -0.7858398576    -1.0627918157     1.0886053274
Bq        -0.7857543915    -1.0177661194     1.0668641369
Bq        -0.7856689253    -0.9727404230     1.0451229464
Bq        -0.7855834592    -0.9277147267     1.0233817558
Bq        -0.7854979931    -0.8826890304     1.0016405653
Bq        -0.7854125269    -0.8376633340     0.9798993748
Bq        -0.7853270608    -0.7926376377     0.9581581843
Bq        -0.7852415947    -0.7476119414     0.9364169938
Bq        -0.7851561285    -0.7025862450     0.9146758033
Bq        -0.7850706624    -0.6575605487     0.8929346127
Bq        -0.7849851962    -0.6125348524     0.8711934222
Bq        -0.7848997301    -0.5675091560     0.8494522317
Bq        -0.7848142640    -0.5224834597     0.8277110412
Bq        -0.7847287978    -0.4774577634     0.8059698507
Bq        -0.7846433317    -0.4324320670     0.7842286602
Bq        -0.7845578656    -0.3874063707     0.7624874696
Bq        -0.7844723994    -0.3423806743     0.7407462791
Bq        -0.7843869333    -0.2973549780     0.7190050886
Bq        -0.7843014672    -0.2523292817     0.6972638981
Bq        -0.7842160010    -0.2073035853     0.6755227076
Bq        -0.7841305349    -0.1622778890     0.6537815171
Bq        -0.7840450687    -0.1172521927     0.6320403265
Bq        -0.7839596026    -0.0722264963     0.6102991360
Bq        -0.7838741365    -0.0272008000     0.5885579455
Bq        -0.7837886703     0.0178248963     0.5668167550
Bq        -0.7837032042     0.0628505927     0.5450755645
Bq        -0.7836177381     0.1078762890     0.5233343740
Bq        -0.7835322719     0.1529019853     0.5015931834
Bq        -0.7834468058     0.1979276817     0.4798519929
Bq        -0.7833613396     0.2429533780     0.4581108024
Bq        -0.7832758735     0.2879790743     0.4363696119
Bq        -0.7831904074     0.3330047707     0.4146284214
Bq        -0.7831049412     0.3780304670     0.3928872309
Bq        -0.7830194751     0.4230561634     0.3711460403
Bq        -0.7829340090     0.4680818597     0.3494048498
Bq        -0.7828485428     0.5131075560     0.3276636593
Bq        -0.7827630767     0.5581332524     0.3059224688
Bq        -0.7826776105     0.6031589487     0.2841812783
Bq        -0.7825921444     0.6481846450     0.2624400878
Bq        -0.7825066783     0.6932103414     0.2406988973
Bq        -0.7824212121     0.7382360377     0.2189577067
Bq        -0.7823357460     0.7832617340     0.1972165162
Bq        -0.7822502799     0.8282874304     0.1754753257
Bq        -0.7821648137     0.8733131267     0.1537341352
Bq        -0.7820793476     0.9183388230     0.1319929447
Bq        -0.7819938814     0.9633645194     0.1102517542
Bq        -0.7819084153     1.0083902157     0.0885105636
Bq        -0.7818229492     1.0534159120     0.0667693731
Bq        -0.7817374830     1.0984416084     0.0450281826
Bq        -0.7816520169     1.1434673047     0.0232869921
Bq        -0.7815665508     1.1884930011     0.0015458016
Bq        -0.7814810846     1.2335186974    -0.0201953889
Bq        -0.7813956185     1.2785443937    -0.0419365795
Bq        -0.7813101523     1.3235700901    -0.0636777700
Bq        -0.7812246862     1.3685957864    -0.0854189605
Bq        -0.7811392201     1.4136214827    -0.1071601510
Bq        -0.7810537539     1.4586471791    -0.1289013415
Bq        -0.7809682878     1.5036728754    -0.1506425320
Bq        -0.7808828217     1.5486985717    -0.1723837226
Bq        -0.7807973555     1.5937242681    -0.1941249131
Bq        -0.7807118894     1.6387499644    -0.2158661036
Bq        -0.7806264232     1.6837756607    -0.2376072941
Bq        -0.7805409571     1.7288013571    -0.2593484846
Bq        -0.7804554910     1.7738270534    -0.2810896751
Bq        -0.7803700248     1.8188527497    -0.3028308657
Bq        -0.7802845587     1.8638784461    -0.3245720562
Bq        -0.7801990926     1.9089041424    -0.3463132467
Bq        -0.7801136264     1.9539298388    -0.3680544372
Bq        -0.7800281603     1.9989555351    -0.3897956277
Bq        -0.7799426941     2.0439812314    -0.4115368182
Bq        -0.7798572280     2.0890069278    -0.4332780088
Bq        -0.7797717619     2.1340326241    -0.4550191993
Bq        -0.7796862957     2.1790583204    -0.4767603898
Bq        -0.7796008296     2.2240840168    -0.4985015803
Bq        -0.7381478297    -2.2784856168     1.6758140233
Bq        -0.7380623635    -2.2334599204     1.6540728328
Bq        -0.7379768974    -2.1884342241     1.6323316423
Bq        -0.7378914312    -2.1434085278     1.6105904517
Bq        -0.7378059651    -2.0983828314     1.5888492612
Bq        -0.7377204990    -2.0533571351     1.5671080707
Bq        -0.7376350328    -2.0083314388     1.5453668802
Bq        -0.7375495667    -1.9633057424     1.5236256897

1
2
3
4
5
6
7
8
9
10
11
12
13
14
15
16
17
18
19
20
21
22
23
24
25
26
27
28
29
30
31
32
33
34
35
36
37
38
39
40
41
42
43
44
45
46
47
48
49
50
51
52
53
54
55
56
57
58
59
60
61
62
63
64
65
66
67
68
69
70
71
72
73
74
75
76
77
78
79
80
81
82
83
84
85
86
87
88
89
90
91
92
93
94
95
96
97
98
99
100
101
102
103
104
105
106
107
108
109
110
111
112
113
114
115
116
117
118
119
120
121
122
123
124
125
126
127
128
129
130
131
132
133
134
135
136
137
138
139
140
141
142
143
144
145
146
147
148
149
150
151
152
153
154
155
156
157
158
159
160
161
162
163
164
165
166
167
168
169
170
171
172
173
174
175
176
177
178
179
180
181
182
183
184
185
186
187
188
189
190
191
192
193
194
195
196
197
198
199
200
201
202
203
204
205
206
207
208
209
210
211
212
213
214
215
216
217
218
219
220
221
222
223
224
225
226
227
228
229
230
231
232
233
234
235
236

