%nproc=8
%mem=1000MB
# rb3lyp/6-311+g** NMR geom=connectivity

Title

0 1
C    -4.0500558   -0.5771862    0.8136712
H    -5.0263804   -1.0082727    1.0024760
C    -3.9381552    0.6617804    0.2400876
H    -4.8252424    1.2338890   -0.0111295
C    -2.6768410    1.2433246    0.0057578
C    -1.4974121    0.5051527    0.2848253
C    -1.6508332   -0.7338728    0.9404026
H    -0.7713646   -1.2730967    1.2633753
C    -2.8898548   -1.2624035    1.1994307
H    -2.9683706   -2.2124563    1.7152676
C    -2.5773185    2.5963696   -0.4192930
H    -3.4870728    3.1412239   -0.6474055
C    -1.3741895    3.2147896   -0.4364030
H    -1.2997315    4.2742019   -0.6578144
C    -0.1719488    2.4994090   -0.1734588
C    -0.2043917    1.1018437    0.0192689
C     1.0513491    3.2042560   -0.0676222
H     1.0427344    4.2819499   -0.1896997
C     2.1942091    2.5487446    0.2579577
H     3.1168527    3.0912848    0.4334727
C     2.2216473    1.1336562    0.2934990
C     1.0486931    0.3945528    0.0302412
C     3.4483363    0.4614633    0.5573939
H     4.3095794    1.0606054    0.8334846
C     3.5427346   -0.8855926    0.4749463
H     4.4731467   -1.3939704    0.7038822
C     2.4490052   -1.6474447   -0.0196319
C     1.2150704   -1.0057258   -0.3013573
C     0.2531113   -1.7434440   -1.0216591
H    -0.6541356   -1.2535051   -1.3462847
C     0.4494193   -3.0628597   -1.3413779
H    -0.3083162   -3.5944309   -1.9054060
C     1.6251726   -3.7207967   -0.9552541
H     1.7670048   -4.7687404   -1.1927019
C     2.6109872   -3.0144177   -0.3183050
H     3.5525612   -3.4902813   -0.0646367
Bq        -1.0711837388     1.4723888722    -0.0078922588
Bq        -1.0706972617     1.5208587882    -0.0201572735
Bq        -1.0702107846     1.5693287042    -0.0324222882
Bq        -1.0697243075     1.6177986202    -0.0446873029
Bq        -1.0692378304     1.6662685361    -0.0569523176
Bq        -1.0687513533     1.7147384521    -0.0692173323
Bq        -1.0682648761     1.7632083681    -0.0814823470
Bq        -1.0677783990     1.8116782840    -0.0937473618
Bq        -1.0672919219     1.8601482000    -0.1060123765
Bq        -1.0668054448     1.9086181160    -0.1182773912
Bq        -1.0663189677     1.9570880319    -0.1305424059
Bq        -1.0658324906     2.0055579479    -0.1428074206
Bq        -1.0653460135     2.0540278639    -0.1550724353
Bq        -1.0648595364     2.1024977798    -0.1673374500
Bq        -1.0643730592     2.1509676958    -0.1796024648
Bq        -1.0638865821     2.1994376118    -0.1918674795
Bq        -1.0634001050     2.2479075278    -0.2041324942
Bq        -1.0629136279     2.2963774437    -0.2163975089
Bq        -1.0624271508     2.3448473597    -0.2286625236
Bq        -1.0619406737     2.3933172757    -0.2409275383
Bq        -1.0614541966     2.4417871916    -0.2531925530
Bq        -1.0609677195     2.4902571076    -0.2654575678
Bq        -1.0604812423     2.5387270236    -0.2777225825
Bq        -1.0599947652     2.5871969395    -0.2899875972
Bq        -1.0595082881     2.6356668555    -0.3022526119
Bq        -1.0590218110     2.6841367715    -0.3145176266
Bq        -1.0585353339     2.7326066875    -0.3267826413
Bq        -1.0580488568     2.7810766034    -0.3390476560
Bq        -1.0575623797     2.8295465194    -0.3513126707
Bq        -1.0570759026     2.8780164354    -0.3635776855
Bq        -1.0565894254     2.9264863513    -0.3758427002
Bq        -1.0561029483     2.9749562673    -0.3881077149
Bq        -1.0556164712     3.0234261833    -0.4003727296
Bq        -1.0551299941     3.0718960992    -0.4126377443
Bq        -1.0546435170     3.1203660152    -0.4249027590
Bq        -1.0541570399     3.1688359312    -0.4371677737
Bq        -1.0536705628     3.2173058471    -0.4494327885
Bq        -1.0531840857     3.2657757631    -0.4616978032
Bq        -1.0526976086     3.3142456791    -0.4739628179
Bq        -1.0522111314     3.3627155951    -0.4862278326
Bq        -1.0517246543     3.4111855110    -0.4984928473
Bq        -1.0512381772     3.4596554270    -0.5107578620
Bq        -1.0507517001     3.5081253430    -0.5230228767
Bq        -1.0502652230     3.5565952589    -0.5352878915
Bq        -1.0497787459     3.6050651749    -0.5475529062
Bq        -1.0492922688     3.6535350909    -0.5598179209
Bq        -1.0488057917     3.7020050068    -0.5720829356
Bq        -1.0483193145     3.7504749228    -0.5843479503
Bq        -1.0478328374     3.7989448388    -0.5966129650
Bq        -1.0473463603     3.8474147548    -0.6088779797
Bq        -1.0468598832     3.8958846707    -0.6211429944
Bq        -1.0463734061     3.9443545867    -0.6334080092
Bq        -1.0458869290     3.9928245027    -0.6456730239
Bq        -1.0454004519     4.0412944186    -0.6579380386
Bq        -1.0449139748     4.0897643346    -0.6702030533
Bq        -1.0444274976     4.1382342506    -0.6824680680
Bq        -1.0439410205     4.1867041665    -0.6947330827
Bq        -1.0434545434     4.2351740825    -0.7069980974
Bq        -1.0429680663     4.2836439985    -0.7192631122
Bq        -1.0416550616    -0.5633475985     0.5092199911
Bq        -1.0411685845    -0.5148776825     0.4969549764
Bq        -1.0406821074    -0.4664077665     0.4846899617
Bq        -1.0401956303    -0.4179378506     0.4724249470
Bq        -1.0397091532    -0.3694679346     0.4601599323
Bq        -1.0392226761    -0.3209980186     0.4478949176
Bq        -1.0387361989    -0.2725281027     0.4356299029
Bq        -1.0382497218    -0.2240581867     0.4233648881
Bq        -1.0377632447    -0.1755882707     0.4110998734
Bq        -1.0372767676    -0.1271183548     0.3988348587
Bq        -1.0367902905    -0.0786484388     0.3865698440
Bq        -1.0363038134    -0.0301785228     0.3743048293
Bq        -1.0358173363     0.0182913932     0.3620398146
Bq        -1.0353308592     0.0667613091     0.3497747999
Bq        -1.0348443820     0.1152312251     0.3375097851
Bq        -1.0343579049     0.1637011411     0.3252447704
Bq        -1.0338714278     0.2121710570     0.3129797557
Bq        -1.0333849507     0.2606409730     0.3007147410
Bq        -1.0328984736     0.3091108890     0.2884497263
Bq        -1.0324119965     0.3575808049     0.2761847116
Bq        -1.0319255194     0.4060507209     0.2639196969
Bq        -1.0314390423     0.4545206369     0.2516546821
Bq        -1.0309525651     0.5029905529     0.2393896674
Bq        -1.0304660880     0.5514604688     0.2271246527
Bq        -1.0299796109     0.5999303848     0.2148596380
Bq        -1.0294931338     0.6484003008     0.2025946233
Bq        -1.0290066567     0.6968702167     0.1903296086
Bq        -1.0285201796     0.7453401327     0.1780645939
Bq        -1.0280337025     0.7938100487     0.1657995792
Bq        -1.0275472254     0.8422799646     0.1535345644
Bq        -1.0270607482     0.8907498806     0.1412695497
Bq        -1.0265742711     0.9392197966     0.1290045350
Bq        -1.0260877940     0.9876897125     0.1167395203
Bq        -1.0256013169     1.0361596285     0.1044745056
Bq        -1.0251148398     1.0846295445     0.0922094909
Bq        -1.0246283627     1.1330994605     0.0799444762
Bq        -1.0241418856     1.1815693764     0.0676794614
Bq        -1.0236554085     1.2300392924     0.0554144467
Bq        -1.0231689313     1.2785092084     0.0431494320
Bq        -1.0226824542     1.3269791243     0.0308844173
Bq        -1.0221959771     1.3754490403     0.0186194026
Bq        -1.0217095000     1.4239189563     0.0063543879
Bq        -1.0212230229     1.4723888722    -0.0059106268
Bq        -1.0207365458     1.5208587882    -0.0181756415
Bq        -1.0202500687     1.5693287042    -0.0304406563
Bq        -1.0197635916     1.6177986202    -0.0427056710
Bq        -1.0192771145     1.6662685361    -0.0549706857
Bq        -1.0187906373     1.7147384521    -0.0672357004
Bq        -1.0183041602     1.7632083681    -0.0795007151
Bq        -1.0178176831     1.8116782840    -0.0917657298
Bq        -1.0173312060     1.8601482000    -0.1040307445
Bq        -1.0168447289     1.9086181160    -0.1162957593
Bq        -1.0163582518     1.9570880319    -0.1285607740
Bq        -1.0158717747     2.0055579479    -0.1408257887
Bq        -1.0153852976     2.0540278639    -0.1530908034
Bq        -1.0148988204     2.1024977798    -0.1653558181
Bq        -1.0144123433     2.1509676958    -0.1776208328
Bq        -1.0139258662     2.1994376118    -0.1898858475
Bq        -1.0134393891     2.2479075278    -0.2021508623
Bq        -1.0129529120     2.2963774437    -0.2144158770
Bq        -1.0124664349     2.3448473597    -0.2266808917
Bq        -1.0119799578     2.3933172757    -0.2389459064
Bq        -1.0114934807     2.4417871916    -0.2512109211
Bq        -1.0110070035     2.4902571076    -0.2634759358
Bq        -1.0105205264     2.5387270236    -0.2757409505
Bq        -1.0100340493     2.5871969395    -0.2880059652
Bq        -1.0095475722     2.6356668555    -0.3002709800
Bq        -1.0090610951     2.6841367715    -0.3125359947
Bq        -1.0085746180     2.7326066875    -0.3248010094
Bq        -1.0080881409     2.7810766034    -0.3370660241
Bq        -1.0076016638     2.8295465194    -0.3493310388
Bq        -1.0071151866     2.8780164354    -0.3615960535
Bq        -1.0066287095     2.9264863513    -0.3738610682
Bq        -1.0061422324     2.9749562673    -0.3861260830
Bq        -1.0056557553     3.0234261833    -0.3983910977
Bq        -1.0051692782     3.0718960992    -0.4106561124
Bq        -1.0046828011     3.1203660152    -0.4229211271
Bq        -1.0041963240     3.1688359312    -0.4351861418
Bq        -1.0037098469     3.2173058471    -0.4474511565
Bq        -1.0032233697     3.2657757631    -0.4597161712
Bq        -1.0027368926     3.3142456791    -0.4719811860
Bq        -1.0022504155     3.3627155951    -0.4842462007
Bq        -1.0017639384     3.4111855110    -0.4965112154
Bq        -1.0012774613     3.4596554270    -0.5087762301
Bq        -1.0007909842     3.5081253430    -0.5210412448
Bq        -1.0003045071     3.5565952589    -0.5333062595
Bq        -0.9998180300     3.6050651749    -0.5455712742
Bq        -0.9993315528     3.6535350909    -0.5578362889
Bq        -0.9988450757     3.7020050068    -0.5701013037
Bq        -0.9983585986     3.7504749228    -0.5823663184
Bq        -0.9978721215     3.7989448388    -0.5946313331
Bq        -0.9973856444     3.8474147548    -0.6068963478
Bq        -0.9968991673     3.8958846707    -0.6191613625
Bq        -0.9964126902     3.9443545867    -0.6314263772
Bq        -0.9959262131     3.9928245027    -0.6436913919
Bq        -0.9954397360     4.0412944186    -0.6559564067
Bq        -0.9949532588     4.0897643346    -0.6682214214
Bq        -0.9944667817     4.1382342506    -0.6804864361
Bq        -0.9939803046     4.1867041665    -0.6927514508
Bq        -0.9934938275     4.2351740825    -0.7050164655
Bq        -0.9930073504     4.2836439985    -0.7172814802
Bq        -0.9916943457    -0.5633475985     0.5112016231
Bq        -0.9912078686    -0.5148776825     0.4989366084
Bq        -0.9907213915    -0.4664077665     0.4866715936
Bq        -0.9902349144    -0.4179378506     0.4744065789
Bq        -0.9897484372    -0.3694679346     0.4621415642
Bq        -0.9892619601    -0.3209980186     0.4498765495
Bq        -0.9887754830    -0.2725281027     0.4376115348
Bq        -0.9882890059    -0.2240581867     0.4253465201
Bq        -0.9878025288    -0.1755882707     0.4130815054
Bq        -0.9873160517    -0.1271183548     0.4008164906
Bq        -0.9868295746    -0.0786484388     0.3885514759
Bq        -0.9863430975    -0.0301785228     0.3762864612
Bq        -0.9858566203     0.0182913932     0.3640214465
Bq        -0.9853701432     0.0667613091     0.3517564318
Bq        -0.9848836661     0.1152312251     0.3394914171
Bq        -0.9843971890     0.1637011411     0.3272264024
Bq        -0.9839107119     0.2121710570     0.3149613876
Bq        -0.9834242348     0.2606409730     0.3026963729
Bq        -0.9829377577     0.3091108890     0.2904313582
Bq        -0.9824512806     0.3575808049     0.2781663435
Bq        -0.9819648035     0.4060507209     0.2659013288
Bq        -0.9814783263     0.4545206369     0.2536363141
Bq        -0.9809918492     0.5029905529     0.2413712994
Bq        -0.9805053721     0.5514604688     0.2291062847
Bq        -0.9800188950     0.5999303848     0.2168412699
Bq        -0.9795324179     0.6484003008     0.2045762552
Bq        -0.9790459408     0.6968702167     0.1923112405
Bq        -0.9785594637     0.7453401327     0.1800462258
Bq        -0.9780729866     0.7938100487     0.1677812111
Bq        -0.9775865094     0.8422799646     0.1555161964
Bq        -0.9771000323     0.8907498806     0.1432511817
Bq        -0.9766135552     0.9392197966     0.1309861669
Bq        -0.9761270781     0.9876897125     0.1187211522
Bq        -0.9756406010     1.0361596285     0.1064561375
Bq        -0.9751541239     1.0846295445     0.0941911228
Bq        -0.9746676468     1.1330994605     0.0819261081
Bq        -0.9741811697     1.1815693764     0.0696610934
Bq        -0.9736946925     1.2300392924     0.0573960787
Bq        -0.9732082154     1.2785092084     0.0451310640
Bq        -0.9727217383     1.3269791243     0.0328660492

1
2
3
4
5
6
7
8
9
10
11
12
13
14
15
16
17
18
19
20
21
22
23
24
25
26
27
28
29
30
31
32
33
34
35
36
37
38
39
40
41
42
43
44
45
46
47
48
49
50
51
52
53
54
55
56
57
58
59
60
61
62
63
64
65
66
67
68
69
70
71
72
73
74
75
76
77
78
79
80
81
82
83
84
85
86
87
88
89
90
91
92
93
94
95
96
97
98
99
100
101
102
103
104
105
106
107
108
109
110
111
112
113
114
115
116
117
118
119
120
121
122
123
124
125
126
127
128
129
130
131
132
133
134
135
136
137
138
139
140
141
142
143
144
145
146
147
148
149
150
151
152
153
154
155
156
157
158
159
160
161
162
163
164
165
166
167
168
169
170
171
172
173
174
175
176
177
178
179
180
181
182
183
184
185
186
187
188
189
190
191
192
193
194
195
196
197
198
199
200
201
202
203
204
205
206
207
208
209
210
211
212
213
214
215
216
217
218
219
220
221
222
223
224
225
226
227
228
229
230
231
232
233
234
235
236

