%nproc=8
%mem=1000MB
# rb3lyp/6-311+g** NMR geom=connectivity

Title

0 1
C    -4.0500558   -0.5771862    0.8136712
H    -5.0263804   -1.0082727    1.0024760
C    -3.9381552    0.6617804    0.2400876
H    -4.8252424    1.2338890   -0.0111295
C    -2.6768410    1.2433246    0.0057578
C    -1.4974121    0.5051527    0.2848253
C    -1.6508332   -0.7338728    0.9404026
H    -0.7713646   -1.2730967    1.2633753
C    -2.8898548   -1.2624035    1.1994307
H    -2.9683706   -2.2124563    1.7152676
C    -2.5773185    2.5963696   -0.4192930
H    -3.4870728    3.1412239   -0.6474055
C    -1.3741895    3.2147896   -0.4364030
H    -1.2997315    4.2742019   -0.6578144
C    -0.1719488    2.4994090   -0.1734588
C    -0.2043917    1.1018437    0.0192689
C     1.0513491    3.2042560   -0.0676222
H     1.0427344    4.2819499   -0.1896997
C     2.1942091    2.5487446    0.2579577
H     3.1168527    3.0912848    0.4334727
C     2.2216473    1.1336562    0.2934990
C     1.0486931    0.3945528    0.0302412
C     3.4483363    0.4614633    0.5573939
H     4.3095794    1.0606054    0.8334846
C     3.5427346   -0.8855926    0.4749463
H     4.4731467   -1.3939704    0.7038822
C     2.4490052   -1.6474447   -0.0196319
C     1.2150704   -1.0057258   -0.3013573
C     0.2531113   -1.7434440   -1.0216591
H    -0.6541356   -1.2535051   -1.3462847
C     0.4494193   -3.0628597   -1.3413779
H    -0.3083162   -3.5944309   -1.9054060
C     1.6251726   -3.7207967   -0.9552541
H     1.7670048   -4.7687404   -1.1927019
C     2.6109872   -3.0144177   -0.3183050
H     3.5525612   -3.4902813   -0.0646367
Bq        -0.1806474403     0.5999303848     0.2485473809
Bq        -0.1801609632     0.6484003008     0.2362823661
Bq        -0.1796744861     0.6968702167     0.2240173514
Bq        -0.1791880090     0.7453401327     0.2117523367
Bq        -0.1787015319     0.7938100487     0.1994873220
Bq        -0.1782150548     0.8422799646     0.1872223073
Bq        -0.1777285777     0.8907498806     0.1749572926
Bq        -0.1772421006     0.9392197966     0.1626922779
Bq        -0.1767556234     0.9876897125     0.1504272631
Bq        -0.1762691463     1.0361596285     0.1381622484
Bq        -0.1757826692     1.0846295445     0.1258972337
Bq        -0.1752961921     1.1330994605     0.1136322190
Bq        -0.1748097150     1.1815693764     0.1013672043
Bq        -0.1743232379     1.2300392924     0.0891021896
Bq        -0.1738367608     1.2785092084     0.0768371749
Bq        -0.1733502837     1.3269791243     0.0645721602
Bq        -0.1728638065     1.3754490403     0.0523071454
Bq        -0.1723773294     1.4239189563     0.0400421307
Bq        -0.1718908523     1.4723888722     0.0277771160
Bq        -0.1714043752     1.5208587882     0.0155121013
Bq        -0.1709178981     1.5693287042     0.0032470866
Bq        -0.1704314210     1.6177986202    -0.0090179281
Bq        -0.1699449439     1.6662685361    -0.0212829428
Bq        -0.1694584668     1.7147384521    -0.0335479576
Bq        -0.1689719896     1.7632083681    -0.0458129723
Bq        -0.1684855125     1.8116782840    -0.0580779870
Bq        -0.1679990354     1.8601482000    -0.0703430017
Bq        -0.1675125583     1.9086181160    -0.0826080164
Bq        -0.1670260812     1.9570880319    -0.0948730311
Bq        -0.1665396041     2.0055579479    -0.1071380458
Bq        -0.1660531270     2.0540278639    -0.1194030606
Bq        -0.1655666499     2.1024977798    -0.1316680753
Bq        -0.1650801727     2.1509676958    -0.1439330900
Bq        -0.1645936956     2.1994376118    -0.1561981047
Bq        -0.1641072185     2.2479075278    -0.1684631194
Bq        -0.1636207414     2.2963774437    -0.1807281341
Bq        -0.1631342643     2.3448473597    -0.1929931488
Bq        -0.1626477872     2.3933172757    -0.2052581635
Bq        -0.1621613101     2.4417871916    -0.2175231783
Bq        -0.1616748330     2.4902571076    -0.2297881930
Bq        -0.1611883559     2.5387270236    -0.2420532077
Bq        -0.1607018787     2.5871969395    -0.2543182224
Bq        -0.1602154016     2.6356668555    -0.2665832371
Bq        -0.1597289245     2.6841367715    -0.2788482518
Bq        -0.1592424474     2.7326066875    -0.2911132665
Bq        -0.1587559703     2.7810766034    -0.3033782813
Bq        -0.1582694932     2.8295465194    -0.3156432960
Bq        -0.1577830161     2.8780164354    -0.3279083107
Bq        -0.1572965390     2.9264863513    -0.3401733254
Bq        -0.1568100618     2.9749562673    -0.3524383401
Bq        -0.1563235847     3.0234261833    -0.3647033548
Bq        -0.1558371076     3.0718960992    -0.3769683695
Bq        -0.1553506305     3.1203660152    -0.3892333843
Bq        -0.1548641534     3.1688359312    -0.4014983990
Bq        -0.1543776763     3.2173058471    -0.4137634137
Bq        -0.1538911992     3.2657757631    -0.4260284284
Bq        -0.1534047221     3.3142456791    -0.4382934431
Bq        -0.1529182449     3.3627155951    -0.4505584578
Bq        -0.1524317678     3.4111855110    -0.4628234725
Bq        -0.1519452907     3.4596554270    -0.4750884872
Bq        -0.1514588136     3.5081253430    -0.4873535020
Bq        -0.1509723365     3.5565952589    -0.4996185167
Bq        -0.1504858594     3.6050651749    -0.5118835314
Bq        -0.1499993823     3.6535350909    -0.5241485461
Bq        -0.1495129052     3.7020050068    -0.5364135608
Bq        -0.1490264280     3.7504749228    -0.5486785755
Bq        -0.1485399509     3.7989448388    -0.5609435902
Bq        -0.1480534738     3.8474147548    -0.5732086050
Bq        -0.1475669967     3.8958846707    -0.5854736197
Bq        -0.1470805196     3.9443545867    -0.5977386344
Bq        -0.1465940425     3.9928245027    -0.6100036491
Bq        -0.1461075654     4.0412944186    -0.6222686638
Bq        -0.1456210883     4.0897643346    -0.6345336785
Bq        -0.1451346111     4.1382342506    -0.6467986932
Bq        -0.1446481340     4.1867041665    -0.6590637080
Bq        -0.1441616569     4.2351740825    -0.6713287227
Bq        -0.1436751798     4.2836439985    -0.6835937374
Bq        -0.1423621751    -0.5633475985     0.5448893659
Bq        -0.1418756980    -0.5148776825     0.5326243512
Bq        -0.1413892209    -0.4664077665     0.5203593365
Bq        -0.1409027438    -0.4179378506     0.5080943218
Bq        -0.1404162667    -0.3694679346     0.4958293071
Bq        -0.1399297896    -0.3209980186     0.4835642923
Bq        -0.1394433124    -0.2725281027     0.4712992776
Bq        -0.1389568353    -0.2240581867     0.4590342629
Bq        -0.1384703582    -0.1755882707     0.4467692482
Bq        -0.1379838811    -0.1271183548     0.4345042335
Bq        -0.1374974040    -0.0786484388     0.4222392188
Bq        -0.1370109269    -0.0301785228     0.4099742041
Bq        -0.1365244498     0.0182913932     0.3977091893
Bq        -0.1360379727     0.0667613091     0.3854441746
Bq        -0.1355514955     0.1152312251     0.3731791599
Bq        -0.1350650184     0.1637011411     0.3609141452
Bq        -0.1345785413     0.2121710570     0.3486491305
Bq        -0.1340920642     0.2606409730     0.3363841158
Bq        -0.1336055871     0.3091108890     0.3241191011
Bq        -0.1331191100     0.3575808049     0.3118540864
Bq        -0.1326326329     0.4060507209     0.2995890716
Bq        -0.1321461558     0.4545206369     0.2873240569
Bq        -0.1316596786     0.5029905529     0.2750590422
Bq        -0.1311732015     0.5514604688     0.2627940275
Bq        -0.1306867244     0.5999303848     0.2505290128
Bq        -0.1302002473     0.6484003008     0.2382639981
Bq        -0.1297137702     0.6968702167     0.2259989834
Bq        -0.1292272931     0.7453401327     0.2137339686
Bq        -0.1287408160     0.7938100487     0.2014689539
Bq        -0.1282543389     0.8422799646     0.1892039392
Bq        -0.1277678617     0.8907498806     0.1769389245
Bq        -0.1272813846     0.9392197966     0.1646739098
Bq        -0.1267949075     0.9876897125     0.1524088951
Bq        -0.1263084304     1.0361596285     0.1401438804
Bq        -0.1258219533     1.0846295445     0.1278788656
Bq        -0.1253354762     1.1330994605     0.1156138509
Bq        -0.1248489991     1.1815693764     0.1033488362
Bq        -0.1243625220     1.2300392924     0.0910838215
Bq        -0.1238760449     1.2785092084     0.0788188068
Bq        -0.1233895677     1.3269791243     0.0665537921
Bq        -0.1229030906     1.3754490403     0.0542887774
Bq        -0.1224166135     1.4239189563     0.0420237627
Bq        -0.1219301364     1.4723888722     0.0297587479
Bq        -0.1214436593     1.5208587882     0.0174937332
Bq        -0.1209571822     1.5693287042     0.0052287185
Bq        -0.1204707051     1.6177986202    -0.0070362962
Bq        -0.1199842280     1.6662685361    -0.0193013109
Bq        -0.1194977508     1.7147384521    -0.0315663256
Bq        -0.1190112737     1.7632083681    -0.0438313403
Bq        -0.1185247966     1.8116782840    -0.0560963551
Bq        -0.1180383195     1.8601482000    -0.0683613698
Bq        -0.1175518424     1.9086181160    -0.0806263845
Bq        -0.1170653653     1.9570880319    -0.0928913992
Bq        -0.1165788882     2.0055579479    -0.1051564139
Bq        -0.1160924111     2.0540278639    -0.1174214286
Bq        -0.1156059339     2.1024977798    -0.1296864433
Bq        -0.1151194568     2.1509676958    -0.1419514580
Bq        -0.1146329797     2.1994376118    -0.1542164728
Bq        -0.1141465026     2.2479075278    -0.1664814875
Bq        -0.1136600255     2.2963774437    -0.1787465022
Bq        -0.1131735484     2.3448473597    -0.1910115169
Bq        -0.1126870713     2.3933172757    -0.2032765316
Bq        -0.1122005942     2.4417871916    -0.2155415463
Bq        -0.1117141170     2.4902571076    -0.2278065610
Bq        -0.1112276399     2.5387270236    -0.2400715758
Bq        -0.1107411628     2.5871969395    -0.2523365905
Bq        -0.1102546857     2.6356668555    -0.2646016052
Bq        -0.1097682086     2.6841367715    -0.2768666199
Bq        -0.1092817315     2.7326066875    -0.2891316346
Bq        -0.1087952544     2.7810766034    -0.3013966493
Bq        -0.1083087773     2.8295465194    -0.3136616640
Bq        -0.1078223001     2.8780164354    -0.3259266788
Bq        -0.1073358230     2.9264863513    -0.3381916935
Bq        -0.1068493459     2.9749562673    -0.3504567082
Bq        -0.1063628688     3.0234261833    -0.3627217229
Bq        -0.1058763917     3.0718960992    -0.3749867376
Bq        -0.1053899146     3.1203660152    -0.3872517523
Bq        -0.1049034375     3.1688359312    -0.3995167670
Bq        -0.1044169604     3.2173058471    -0.4117817817
Bq        -0.1039304833     3.2657757631    -0.4240467965
Bq        -0.1034440061     3.3142456791    -0.4363118112
Bq        -0.1029575290     3.3627155951    -0.4485768259
Bq        -0.1024710519     3.4111855110    -0.4608418406
Bq        -0.1019845748     3.4596554270    -0.4731068553
Bq        -0.1014980977     3.5081253430    -0.4853718700
Bq        -0.1010116206     3.5565952589    -0.4976368847
Bq        -0.1005251435     3.6050651749    -0.5099018995
Bq        -0.1000386664     3.6535350909    -0.5221669142
Bq        -0.0995521892     3.7020050068    -0.5344319289
Bq        -0.0990657121     3.7504749228    -0.5466969436
Bq        -0.0985792350     3.7989448388    -0.5589619583
Bq        -0.0980927579     3.8474147548    -0.5712269730
Bq        -0.0976062808     3.8958846707    -0.5834919877
Bq        -0.0971198037     3.9443545867    -0.5957570025
Bq        -0.0966333266     3.9928245027    -0.6080220172
Bq        -0.0961468495     4.0412944186    -0.6202870319
Bq        -0.0956603723     4.0897643346    -0.6325520466
Bq        -0.0951738952     4.1382342506    -0.6448170613
Bq        -0.0946874181     4.1867041665    -0.6570820760
Bq        -0.0942009410     4.2351740825    -0.6693470907
Bq        -0.0937144639     4.2836439985    -0.6816121054
Bq        -0.0924014592    -0.5633475985     0.5468709978
Bq        -0.0919149821    -0.5148776825     0.5346059831
Bq        -0.0914285050    -0.4664077665     0.5223409684
Bq        -0.0909420279    -0.4179378506     0.5100759537
Bq        -0.0904555508    -0.3694679346     0.4978109390
Bq        -0.0899690736    -0.3209980186     0.4855459243
Bq        -0.0894825965    -0.2725281027     0.4732809096
Bq        -0.0889961194    -0.2240581867     0.4610158948
Bq        -0.0885096423    -0.1755882707     0.4487508801
Bq        -0.0880231652    -0.1271183548     0.4364858654
Bq        -0.0875366881    -0.0786484388     0.4242208507
Bq        -0.0870502110    -0.0301785228     0.4119558360
Bq        -0.0865637339     0.0182913932     0.3996908213
Bq        -0.0860772567     0.0667613091     0.3874258066
Bq        -0.0855907796     0.1152312251     0.3751607919
Bq        -0.0851043025     0.1637011411     0.3628957771
Bq        -0.0846178254     0.2121710570     0.3506307624
Bq        -0.0841313483     0.2606409730     0.3383657477
Bq        -0.0836448712     0.3091108890     0.3261007330
Bq        -0.0831583941     0.3575808049     0.3138357183
Bq        -0.0826719170     0.4060507209     0.3015707036
Bq        -0.0821854398     0.4545206369     0.2893056889

1
2
3
4
5
6
7
8
9
10
11
12
13
14
15
16
17
18
19
20
21
22
23
24
25
26
27
28
29
30
31
32
33
34
35
36
37
38
39
40
41
42
43
44
45
46
47
48
49
50
51
52
53
54
55
56
57
58
59
60
61
62
63
64
65
66
67
68
69
70
71
72
73
74
75
76
77
78
79
80
81
82
83
84
85
86
87
88
89
90
91
92
93
94
95
96
97
98
99
100
101
102
103
104
105
106
107
108
109
110
111
112
113
114
115
116
117
118
119
120
121
122
123
124
125
126
127
128
129
130
131
132
133
134
135
136
137
138
139
140
141
142
143
144
145
146
147
148
149
150
151
152
153
154
155
156
157
158
159
160
161
162
163
164
165
166
167
168
169
170
171
172
173
174
175
176
177
178
179
180
181
182
183
184
185
186
187
188
189
190
191
192
193
194
195
196
197
198
199
200
201
202
203
204
205
206
207
208
209
210
211
212
213
214
215
216
217
218
219
220
221
222
223
224
225
226
227
228
229
230
231
232
233
234
235
236

