%nproc=8
%mem=1000MB
# rb3lyp/6-311+g** NMR geom=connectivity

Title

0 1
C    -4.0500558   -0.5771862    0.8136712
H    -5.0263804   -1.0082727    1.0024760
C    -3.9381552    0.6617804    0.2400876
H    -4.8252424    1.2338890   -0.0111295
C    -2.6768410    1.2433246    0.0057578
C    -1.4974121    0.5051527    0.2848253
C    -1.6508332   -0.7338728    0.9404026
H    -0.7713646   -1.2730967    1.2633753
C    -2.8898548   -1.2624035    1.1994307
H    -2.9683706   -2.2124563    1.7152676
C    -2.5773185    2.5963696   -0.4192930
H    -3.4870728    3.1412239   -0.6474055
C    -1.3741895    3.2147896   -0.4364030
H    -1.2997315    4.2742019   -0.6578144
C    -0.1719488    2.4994090   -0.1734588
C    -0.2043917    1.1018437    0.0192689
C     1.0513491    3.2042560   -0.0676222
H     1.0427344    4.2819499   -0.1896997
C     2.1942091    2.5487446    0.2579577
H     3.1168527    3.0912848    0.4334727
C     2.2216473    1.1336562    0.2934990
C     1.0486931    0.3945528    0.0302412
C     3.4483363    0.4614633    0.5573939
H     4.3095794    1.0606054    0.8334846
C     3.5427346   -0.8855926    0.4749463
H     4.4731467   -1.3939704    0.7038822
C     2.4490052   -1.6474447   -0.0196319
C     1.2150704   -1.0057258   -0.3013573
C     0.2531113   -1.7434440   -1.0216591
H    -0.6541356   -1.2535051   -1.3462847
C     0.4494193   -3.0628597   -1.3413779
H    -0.3083162   -3.5944309   -1.9054060
C     1.6251726   -3.7207967   -0.9552541
H     1.7670048   -4.7687404   -1.1927019
C     2.6109872   -3.0144177   -0.3183050
H     3.5525612   -3.4902813   -0.0646367
Bq        -0.2446156503    -0.8234937099    -0.9541964385
Bq        -0.2501188870    -0.7752972186    -0.9420798133
Bq        -0.2556221237    -0.7271007272    -0.9299631881
Bq        -0.2611253604    -0.6789042359    -0.9178465629
Bq        -0.2666285970    -0.6307077445    -0.9057299376
Bq        -0.2721318337    -0.5825112532    -0.8936133124
Bq        -0.2776350704    -0.5343147618    -0.8814966872
Bq        -0.2831383071    -0.4861182704    -0.8693800619
Bq        -0.2886415438    -0.4379217791    -0.8572634367
Bq        -0.2941447805    -0.3897252877    -0.8451468115
Bq        -0.2996480172    -0.3415287964    -0.8330301862
Bq        -0.3051512538    -0.2933323050    -0.8209135610
Bq        -0.3106544905    -0.2451358137    -0.8087969358
Bq        -0.3161577272    -0.1969393223    -0.7966803106
Bq        -0.3216609639    -0.1487428310    -0.7845636853
Bq        -0.3271642006    -0.1005463396    -0.7724470601
Bq        -0.3326674373    -0.0523498482    -0.7603304349
Bq        -0.3381706740    -0.0041533569    -0.7482138096
Bq        -0.3436739106     0.0440431345    -0.7360971844
Bq         0.2521741946    -4.7756060011    -1.9270830135
Bq         0.2466709579    -4.7274095098    -1.9149663883
Bq         0.2411677212    -4.6792130184    -1.9028497630
Bq         0.2356644846    -4.6310165271    -1.8907331378
Bq         0.2301612479    -4.5828200357    -1.8786165126
Bq         0.2246580112    -4.5346235444    -1.8664998874
Bq         0.2191547745    -4.4864270530    -1.8543832621
Bq         0.2136515378    -4.4382305616    -1.8422666369
Bq         0.2081483011    -4.3900340703    -1.8301500117
Bq         0.2026450644    -4.3418375789    -1.8180333864
Bq         0.1971418278    -4.2936410876    -1.8059167612
Bq         0.1916385911    -4.2454445962    -1.7938001360
Bq         0.1861353544    -4.1972481049    -1.7816835108
Bq         0.1806321177    -4.1490516135    -1.7695668855
Bq         0.1751288810    -4.1008551222    -1.7574502603
Bq         0.1696256443    -4.0526586308    -1.7453336351
Bq         0.1641224076    -4.0044621394    -1.7332170098
Bq         0.1586191710    -3.9562656481    -1.7211003846
Bq         0.1531159343    -3.9080691567    -1.7089837594
Bq         0.1476126976    -3.8598726654    -1.6968671342
Bq         0.1421094609    -3.8116761740    -1.6847505089
Bq         0.1366062242    -3.7634796827    -1.6726338837
Bq         0.1311029875    -3.7152831913    -1.6605172585
Bq         0.1255997508    -3.6670866999    -1.6484006332
Bq         0.1200965142    -3.6188902086    -1.6362840080
Bq         0.1145932775    -3.5706937172    -1.6241673828
Bq         0.1090900408    -3.5224972259    -1.6120507575
Bq         0.1035868041    -3.4743007345    -1.5999341323
Bq         0.0980835674    -3.4261042432    -1.5878175071
Bq         0.0925803307    -3.3779077518    -1.5757008819
Bq         0.0870770940    -3.3297112605    -1.5635842566
Bq         0.0815738574    -3.2815147691    -1.5514676314
Bq         0.0760706207    -3.2333182777    -1.5393510062
Bq         0.0705673840    -3.1851217864    -1.5272343809
Bq         0.0650641473    -3.1369252950    -1.5151177557
Bq         0.0595609106    -3.0887288037    -1.5030011305
Bq         0.0540576739    -3.0405323123    -1.4908845053
Bq         0.0485544372    -2.9923358210    -1.4787678800
Bq         0.0430512005    -2.9441393296    -1.4666512548
Bq         0.0375479639    -2.8959428383    -1.4545346296
Bq         0.0320447272    -2.8477463469    -1.4424180043
Bq         0.0265414905    -2.7995498555    -1.4303013791
Bq         0.0210382538    -2.7513533642    -1.4181847539
Bq         0.0155350171    -2.7031568728    -1.4060681287
Bq         0.0100317804    -2.6549603815    -1.3939515034
Bq         0.0045285437    -2.6067638901    -1.3818348782
Bq        -0.0009746929    -2.5585673988    -1.3697182530
Bq        -0.0064779296    -2.5103709074    -1.3576016277
Bq        -0.0119811663    -2.4621744160    -1.3454850025
Bq        -0.0174844030    -2.4139779247    -1.3333683773
Bq        -0.0229876397    -2.3657814333    -1.3212517521
Bq        -0.0284908764    -2.3175849420    -1.3091351268
Bq        -0.0339941131    -2.2693884506    -1.2970185016
Bq        -0.0394973497    -2.2211919593    -1.2849018764
Bq        -0.0450005864    -2.1729954679    -1.2727852511
Bq        -0.0505038231    -2.1247989766    -1.2606686259
Bq        -0.0560070598    -2.0766024852    -1.2485520007
Bq        -0.0615102965    -2.0284059938    -1.2364353755
Bq        -0.0670135332    -1.9802095025    -1.2243187502
Bq        -0.0725167699    -1.9320130111    -1.2122021250
Bq        -0.0780200065    -1.8838165198    -1.2000854998
Bq        -0.0835232432    -1.8356200284    -1.1879688745
Bq        -0.0890264799    -1.7874235371    -1.1758522493
Bq        -0.0945297166    -1.7392270457    -1.1637356241
Bq        -0.1000329533    -1.6910305543    -1.1516189988
Bq        -0.1055361900    -1.6428340630    -1.1395023736
Bq        -0.1110394267    -1.5946375716    -1.1273857484
Bq        -0.1165426633    -1.5464410803    -1.1152691232
Bq        -0.1220459000    -1.4982445889    -1.1031524979
Bq        -0.1275491367    -1.4500480976    -1.0910358727
Bq        -0.1330523734    -1.4018516062    -1.0789192475
Bq        -0.1385556101    -1.3536551149    -1.0668026222
Bq        -0.1440588468    -1.3054586235    -1.0546859970
Bq        -0.1495620835    -1.2572621321    -1.0425693718
Bq        -0.1550653201    -1.2090656408    -1.0304527466
Bq        -0.1605685568    -1.1608691494    -1.0183361213
Bq        -0.1660717935    -1.1126726581    -1.0062194961
Bq        -0.1715750302    -1.0644761667    -0.9941028709
Bq        -0.1770782669    -1.0162796754    -0.9819862456
Bq        -0.1825815036    -0.9680831840    -0.9698696204
Bq        -0.1880847403    -0.9198866927    -0.9577529952
Bq        -0.1935879770    -0.8716902013    -0.9456363700
Bq        -0.1990912136    -0.8234937099    -0.9335197447
Bq        -0.2045944503    -0.7752972186    -0.9214031195
Bq        -0.2100976870    -0.7271007272    -0.9092864943
Bq        -0.2156009237    -0.6789042359    -0.8971698690
Bq        -0.2211041604    -0.6307077445    -0.8850532438
Bq        -0.2266073971    -0.5825112532    -0.8729366186
Bq        -0.2321106338    -0.5343147618    -0.8608199934
Bq        -0.2376138704    -0.4861182704    -0.8487033681
Bq        -0.2431171071    -0.4379217791    -0.8365867429
Bq        -0.2486203438    -0.3897252877    -0.8244701177
Bq        -0.2541235805    -0.3415287964    -0.8123534924
Bq        -0.2596268172    -0.2933323050    -0.8002368672
Bq        -0.2651300539    -0.2451358137    -0.7881202420
Bq        -0.2706332906    -0.1969393223    -0.7760036167
Bq        -0.2761365272    -0.1487428310    -0.7638869915
Bq        -0.2816397639    -0.1005463396    -0.7517703663
Bq        -0.2871430006    -0.0523498482    -0.7396537411
Bq        -0.2926462373    -0.0041533569    -0.7275371158
Bq        -0.2981494740     0.0440431345    -0.7154204906
Bq         0.2976986313    -4.7756060011    -1.9064063197
Bq         0.2921953946    -4.7274095098    -1.8942896945
Bq         0.2866921579    -4.6792130184    -1.8821730692
Bq         0.2811889212    -4.6310165271    -1.8700564440
Bq         0.2756856845    -4.5828200357    -1.8579398188
Bq         0.2701824478    -4.5346235444    -1.8458231935
Bq         0.2646792112    -4.4864270530    -1.8337065683
Bq         0.2591759745    -4.4382305616    -1.8215899431
Bq         0.2536727378    -4.3900340703    -1.8094733179
Bq         0.2481695011    -4.3418375789    -1.7973566926
Bq         0.2426662644    -4.2936410876    -1.7852400674
Bq         0.2371630277    -4.2454445962    -1.7731234422
Bq         0.2316597910    -4.1972481049    -1.7610068169
Bq         0.2261565544    -4.1490516135    -1.7488901917
Bq         0.2206533177    -4.1008551222    -1.7367735665
Bq         0.2151500810    -4.0526586308    -1.7246569413
Bq         0.2096468443    -4.0044621394    -1.7125403160
Bq         0.2041436076    -3.9562656481    -1.7004236908
Bq         0.1986403709    -3.9080691567    -1.6883070656
Bq         0.1931371342    -3.8598726654    -1.6761904403
Bq         0.1876338976    -3.8116761740    -1.6640738151
Bq         0.1821306609    -3.7634796827    -1.6519571899
Bq         0.1766274242    -3.7152831913    -1.6398405647
Bq         0.1711241875    -3.6670866999    -1.6277239394
Bq         0.1656209508    -3.6188902086    -1.6156073142
Bq         0.1601177141    -3.5706937172    -1.6034906890
Bq         0.1546144774    -3.5224972259    -1.5913740637
Bq         0.1491112408    -3.4743007345    -1.5792574385
Bq         0.1436080041    -3.4261042432    -1.5671408133
Bq         0.1381047674    -3.3779077518    -1.5550241880
Bq         0.1326015307    -3.3297112605    -1.5429075628
Bq         0.1270982940    -3.2815147691    -1.5307909376
Bq         0.1215950573    -3.2333182777    -1.5186743124
Bq         0.1160918206    -3.1851217864    -1.5065576871
Bq         0.1105885840    -3.1369252950    -1.4944410619
Bq         0.1050853473    -3.0887288037    -1.4823244367
Bq         0.0995821106    -3.0405323123    -1.4702078114
Bq         0.0940788739    -2.9923358210    -1.4580911862
Bq         0.0885756372    -2.9441393296    -1.4459745610
Bq         0.0830724005    -2.8959428383    -1.4338579358
Bq         0.0775691638    -2.8477463469    -1.4217413105
Bq         0.0720659271    -2.7995498555    -1.4096246853
Bq         0.0665626905    -2.7513533642    -1.3975080601
Bq         0.0610594538    -2.7031568728    -1.3853914348
Bq         0.0555562171    -2.6549603815    -1.3732748096
Bq         0.0500529804    -2.6067638901    -1.3611581844
Bq         0.0445497437    -2.5585673988    -1.3490415592
Bq         0.0390465070    -2.5103709074    -1.3369249339
Bq         0.0335432703    -2.4621744160    -1.3248083087
Bq         0.0280400337    -2.4139779247    -1.3126916835
Bq         0.0225367970    -2.3657814333    -1.3005750582
Bq         0.0170335603    -2.3175849420    -1.2884584330
Bq         0.0115303236    -2.2693884506    -1.2763418078
Bq         0.0060270869    -2.2211919593    -1.2642251826
Bq         0.0005238502    -2.1729954679    -1.2521085573
Bq        -0.0049793865    -2.1247989766    -1.2399919321
Bq        -0.0104826231    -2.0766024852    -1.2278753069
Bq        -0.0159858598    -2.0284059938    -1.2157586816
Bq        -0.0214890965    -1.9802095025    -1.2036420564
Bq        -0.0269923332    -1.9320130111    -1.1915254312
Bq        -0.0324955699    -1.8838165198    -1.1794088059
Bq        -0.0379988066    -1.8356200284    -1.1672921807
Bq        -0.0435020433    -1.7874235371    -1.1551755555
Bq        -0.0490052799    -1.7392270457    -1.1430589303
Bq        -0.0545085166    -1.6910305543    -1.1309423050
Bq        -0.0600117533    -1.6428340630    -1.1188256798
Bq        -0.0655149900    -1.5946375716    -1.1067090546
Bq        -0.0710182267    -1.5464410803    -1.0945924293
Bq        -0.0765214634    -1.4982445889    -1.0824758041
Bq        -0.0820247001    -1.4500480976    -1.0703591789
Bq        -0.0875279367    -1.4018516062    -1.0582425537
Bq        -0.0930311734    -1.3536551149    -1.0461259284
Bq        -0.0985344101    -1.3054586235    -1.0340093032
Bq        -0.1040376468    -1.2572621321    -1.0218926780
Bq        -0.1095408835    -1.2090656408    -1.0097760527
Bq        -0.1150441202    -1.1608691494    -0.9976594275
Bq        -0.1205473569    -1.1126726581    -0.9855428023
Bq        -0.1260505935    -1.0644761667    -0.9734261771
Bq        -0.1315538302    -1.0162796754    -0.9613095518
Bq        -0.1370570669    -0.9680831840    -0.9491929266

1
2
3
4
5
6
7
8
9
10
11
12
13
14
15
16
17
18
19
20
21
22
23
24
25
26
27
28
29
30
31
32
33
34
35
36
37
38
39
40
41
42
43
44
45
46
47
48
49
50
51
52
53
54
55
56
57
58
59
60
61
62
63
64
65
66
67
68
69
70
71
72
73
74
75
76
77
78
79
80
81
82
83
84
85
86
87
88
89
90
91
92
93
94
95
96
97
98
99
100
101
102
103
104
105
106
107
108
109
110
111
112
113
114
115
116
117
118
119
120
121
122
123
124
125
126
127
128
129
130
131
132
133
134
135
136
137
138
139
140
141
142
143
144
145
146
147
148
149
150
151
152
153
154
155
156
157
158
159
160
161
162
163
164
165
166
167
168
169
170
171
172
173
174
175
176
177
178
179
180
181
182
183
184
185
186
187
188
189
190
191
192
193
194
195
196
197
198
199
200
201
202
203
204
205
206
207
208
209
210
211
212
213
214
215
216
217
218
219
220
221
222
223
224
225
226
227
228
229
230
231
232
233
234
235
236

