%nproc=8
%mem=1000MB
# rb3lyp/6-311+g** NMR geom=connectivity

Title

0 1
C    -4.0500558   -0.5771862    0.8136712
H    -5.0263804   -1.0082727    1.0024760
C    -3.9381552    0.6617804    0.2400876
H    -4.8252424    1.2338890   -0.0111295
C    -2.6768410    1.2433246    0.0057578
C    -1.4974121    0.5051527    0.2848253
C    -1.6508332   -0.7338728    0.9404026
H    -0.7713646   -1.2730967    1.2633753
C    -2.8898548   -1.2624035    1.1994307
H    -2.9683706   -2.2124563    1.7152676
C    -2.5773185    2.5963696   -0.4192930
H    -3.4870728    3.1412239   -0.6474055
C    -1.3741895    3.2147896   -0.4364030
H    -1.2997315    4.2742019   -0.6578144
C    -0.1719488    2.4994090   -0.1734588
C    -0.2043917    1.1018437    0.0192689
C     1.0513491    3.2042560   -0.0676222
H     1.0427344    4.2819499   -0.1896997
C     2.1942091    2.5487446    0.2579577
H     3.1168527    3.0912848    0.4334727
C     2.2216473    1.1336562    0.2934990
C     1.0486931    0.3945528    0.0302412
C     3.4483363    0.4614633    0.5573939
H     4.3095794    1.0606054    0.8334846
C     3.5427346   -0.8855926    0.4749463
H     4.4731467   -1.3939704    0.7038822
C     2.4490052   -1.6474447   -0.0196319
C     1.2150704   -1.0057258   -0.3013573
C     0.2531113   -1.7434440   -1.0216591
H    -0.6541356   -1.2535051   -1.3462847
C     0.4494193   -3.0628597   -1.3413779
H    -0.3083162   -3.5944309   -1.9054060
C     1.6251726   -3.7207967   -0.9552541
H     1.7670048   -4.7687404   -1.1927019
C     2.6109872   -3.0144177   -0.3183050
H     3.5525612   -3.4902813   -0.0646367
Bq        -0.9722352612     1.3754490403     0.0206010345
Bq        -0.9717487841     1.4239189563     0.0083360198
Bq        -0.9712623070     1.4723888722    -0.0039289949
Bq        -0.9707758299     1.5208587882    -0.0161940096
Bq        -0.9702893528     1.5693287042    -0.0284590243
Bq        -0.9698028756     1.6177986202    -0.0407240390
Bq        -0.9693163985     1.6662685361    -0.0529890538
Bq        -0.9688299214     1.7147384521    -0.0652540685
Bq        -0.9683434443     1.7632083681    -0.0775190832
Bq        -0.9678569672     1.8116782840    -0.0897840979
Bq        -0.9673704901     1.8601482000    -0.1020491126
Bq        -0.9668840130     1.9086181160    -0.1143141273
Bq        -0.9663975359     1.9570880319    -0.1265791420
Bq        -0.9659110587     2.0055579479    -0.1388441568
Bq        -0.9654245816     2.0540278639    -0.1511091715
Bq        -0.9649381045     2.1024977798    -0.1633741862
Bq        -0.9644516274     2.1509676958    -0.1756392009
Bq        -0.9639651503     2.1994376118    -0.1879042156
Bq        -0.9634786732     2.2479075278    -0.2001692303
Bq        -0.9629921961     2.2963774437    -0.2124342450
Bq        -0.9625057190     2.3448473597    -0.2246992597
Bq        -0.9620192419     2.3933172757    -0.2369642745
Bq        -0.9615327647     2.4417871916    -0.2492292892
Bq        -0.9610462876     2.4902571076    -0.2614943039
Bq        -0.9605598105     2.5387270236    -0.2737593186
Bq        -0.9600733334     2.5871969395    -0.2860243333
Bq        -0.9595868563     2.6356668555    -0.2982893480
Bq        -0.9591003792     2.6841367715    -0.3105543627
Bq        -0.9586139021     2.7326066875    -0.3228193775
Bq        -0.9581274250     2.7810766034    -0.3350843922
Bq        -0.9576409478     2.8295465194    -0.3473494069
Bq        -0.9571544707     2.8780164354    -0.3596144216
Bq        -0.9566679936     2.9264863513    -0.3718794363
Bq        -0.9561815165     2.9749562673    -0.3841444510
Bq        -0.9556950394     3.0234261833    -0.3964094657
Bq        -0.9552085623     3.0718960992    -0.4086744805
Bq        -0.9547220852     3.1203660152    -0.4209394952
Bq        -0.9542356081     3.1688359312    -0.4332045099
Bq        -0.9537491309     3.2173058471    -0.4454695246
Bq        -0.9532626538     3.2657757631    -0.4577345393
Bq        -0.9527761767     3.3142456791    -0.4699995540
Bq        -0.9522896996     3.3627155951    -0.4822645687
Bq        -0.9518032225     3.4111855110    -0.4945295834
Bq        -0.9513167454     3.4596554270    -0.5067945982
Bq        -0.9508302683     3.5081253430    -0.5190596129
Bq        -0.9503437912     3.5565952589    -0.5313246276
Bq        -0.9498573140     3.6050651749    -0.5435896423
Bq        -0.9493708369     3.6535350909    -0.5558546570
Bq        -0.9488843598     3.7020050068    -0.5681196717
Bq        -0.9483978827     3.7504749228    -0.5803846864
Bq        -0.9479114056     3.7989448388    -0.5926497012
Bq        -0.9474249285     3.8474147548    -0.6049147159
Bq        -0.9469384514     3.8958846707    -0.6171797306
Bq        -0.9464519743     3.9443545867    -0.6294447453
Bq        -0.9459654971     3.9928245027    -0.6417097600
Bq        -0.9454790200     4.0412944186    -0.6539747747
Bq        -0.9449925429     4.0897643346    -0.6662397894
Bq        -0.9445060658     4.1382342506    -0.6785048041
Bq        -0.9440195887     4.1867041665    -0.6907698189
Bq        -0.9435331116     4.2351740825    -0.7030348336
Bq        -0.9430466345     4.2836439985    -0.7152998483
Bq        -0.9417336298    -0.5633475985     0.5131832550
Bq        -0.9412471527    -0.5148776825     0.5009182403
Bq        -0.9407606756    -0.4664077665     0.4886532256
Bq        -0.9402741984    -0.4179378506     0.4763882109
Bq        -0.9397877213    -0.3694679346     0.4641231961
Bq        -0.9393012442    -0.3209980186     0.4518581814
Bq        -0.9388147671    -0.2725281027     0.4395931667
Bq        -0.9383282900    -0.2240581867     0.4273281520
Bq        -0.9378418129    -0.1755882707     0.4150631373
Bq        -0.9373553358    -0.1271183548     0.4027981226
Bq        -0.9368688587    -0.0786484388     0.3905331079
Bq        -0.9363823815    -0.0301785228     0.3782680931
Bq        -0.9358959044     0.0182913932     0.3660030784
Bq        -0.9354094273     0.0667613091     0.3537380637
Bq        -0.9349229502     0.1152312251     0.3414730490
Bq        -0.9344364731     0.1637011411     0.3292080343
Bq        -0.9339499960     0.2121710570     0.3169430196
Bq        -0.9334635189     0.2606409730     0.3046780049
Bq        -0.9329770418     0.3091108890     0.2924129902
Bq        -0.9324905646     0.3575808049     0.2801479754
Bq        -0.9320040875     0.4060507209     0.2678829607
Bq        -0.9315176104     0.4545206369     0.2556179460
Bq        -0.9310311333     0.5029905529     0.2433529313
Bq        -0.9305446562     0.5514604688     0.2310879166
Bq        -0.9300581791     0.5999303848     0.2188229019
Bq        -0.9295717020     0.6484003008     0.2065578872
Bq        -0.9290852249     0.6968702167     0.1942928724
Bq        -0.9285987477     0.7453401327     0.1820278577
Bq        -0.9281122706     0.7938100487     0.1697628430
Bq        -0.9276257935     0.8422799646     0.1574978283
Bq        -0.9271393164     0.8907498806     0.1452328136
Bq        -0.9266528393     0.9392197966     0.1329677989
Bq        -0.9261663622     0.9876897125     0.1207027842
Bq        -0.9256798851     1.0361596285     0.1084377695
Bq        -0.9251934080     1.0846295445     0.0961727547
Bq        -0.9247069309     1.1330994605     0.0839077400
Bq        -0.9242204537     1.1815693764     0.0716427253
Bq        -0.9237339766     1.2300392924     0.0593777106
Bq        -0.9232474995     1.2785092084     0.0471126959
Bq        -0.9227610224     1.3269791243     0.0348476812
Bq        -0.9222745453     1.3754490403     0.0225826665
Bq        -0.9217880682     1.4239189563     0.0103176517
Bq        -0.9213015911     1.4723888722    -0.0019473630
Bq        -0.9208151140     1.5208587882    -0.0142123777
Bq        -0.9203286368     1.5693287042    -0.0264773924
Bq        -0.9198421597     1.6177986202    -0.0387424071
Bq        -0.9193556826     1.6662685361    -0.0510074218
Bq        -0.9188692055     1.7147384521    -0.0632724365
Bq        -0.9183827284     1.7632083681    -0.0755374513
Bq        -0.9178962513     1.8116782840    -0.0878024660
Bq        -0.9174097742     1.8601482000    -0.1000674807
Bq        -0.9169232971     1.9086181160    -0.1123324954
Bq        -0.9164368199     1.9570880319    -0.1245975101
Bq        -0.9159503428     2.0055579479    -0.1368625248
Bq        -0.9154638657     2.0540278639    -0.1491275395
Bq        -0.9149773886     2.1024977798    -0.1613925542
Bq        -0.9144909115     2.1509676958    -0.1736575690
Bq        -0.9140044344     2.1994376118    -0.1859225837
Bq        -0.9135179573     2.2479075278    -0.1981875984
Bq        -0.9130314802     2.2963774437    -0.2104526131
Bq        -0.9125450030     2.3448473597    -0.2227176278
Bq        -0.9120585259     2.3933172757    -0.2349826425
Bq        -0.9115720488     2.4417871916    -0.2472476572
Bq        -0.9110855717     2.4902571076    -0.2595126720
Bq        -0.9105990946     2.5387270236    -0.2717776867
Bq        -0.9101126175     2.5871969395    -0.2840427014
Bq        -0.9096261404     2.6356668555    -0.2963077161
Bq        -0.9091396633     2.6841367715    -0.3085727308
Bq        -0.9086531861     2.7326066875    -0.3208377455
Bq        -0.9081667090     2.7810766034    -0.3331027602
Bq        -0.9076802319     2.8295465194    -0.3453677750
Bq        -0.9071937548     2.8780164354    -0.3576327897
Bq        -0.9067072777     2.9264863513    -0.3698978044
Bq        -0.9062208006     2.9749562673    -0.3821628191
Bq        -0.9057343235     3.0234261833    -0.3944278338
Bq        -0.9052478464     3.0718960992    -0.4066928485
Bq        -0.9047613693     3.1203660152    -0.4189578632
Bq        -0.9042748921     3.1688359312    -0.4312228779
Bq        -0.9037884150     3.2173058471    -0.4434878927
Bq        -0.9033019379     3.2657757631    -0.4557529074
Bq        -0.9028154608     3.3142456791    -0.4680179221
Bq        -0.9023289837     3.3627155951    -0.4802829368
Bq        -0.9018425066     3.4111855110    -0.4925479515
Bq        -0.9013560295     3.4596554270    -0.5048129662
Bq        -0.9008695524     3.5081253430    -0.5170779809
Bq        -0.9003830752     3.5565952589    -0.5293429957
Bq        -0.8998965981     3.6050651749    -0.5416080104
Bq        -0.8994101210     3.6535350909    -0.5538730251
Bq        -0.8989236439     3.7020050068    -0.5661380398
Bq        -0.8984371668     3.7504749228    -0.5784030545
Bq        -0.8979506897     3.7989448388    -0.5906680692
Bq        -0.8974642126     3.8474147548    -0.6029330839
Bq        -0.8969777355     3.8958846707    -0.6151980986
Bq        -0.8964912583     3.9443545867    -0.6274631134
Bq        -0.8960047812     3.9928245027    -0.6397281281
Bq        -0.8955183041     4.0412944186    -0.6519931428
Bq        -0.8950318270     4.0897643346    -0.6642581575
Bq        -0.8945453499     4.1382342506    -0.6765231722
Bq        -0.8940588728     4.1867041665    -0.6887881869
Bq        -0.8935723957     4.2351740825    -0.7010532016
Bq        -0.8930859186     4.2836439985    -0.7133182164
Bq        -0.8917729139    -0.5633475985     0.5151648869
Bq        -0.8912864368    -0.5148776825     0.5028998722
Bq        -0.8907999596    -0.4664077665     0.4906348575
Bq        -0.8903134825    -0.4179378506     0.4783698428
Bq        -0.8898270054    -0.3694679346     0.4661048281
Bq        -0.8893405283    -0.3209980186     0.4538398134
Bq        -0.8888540512    -0.2725281027     0.4415747986
Bq        -0.8883675741    -0.2240581867     0.4293097839
Bq        -0.8878810970    -0.1755882707     0.4170447692
Bq        -0.8873946199    -0.1271183548     0.4047797545
Bq        -0.8869081427    -0.0786484388     0.3925147398
Bq        -0.8864216656    -0.0301785228     0.3802497251
Bq        -0.8859351885     0.0182913932     0.3679847104
Bq        -0.8854487114     0.0667613091     0.3557196957
Bq        -0.8849622343     0.1152312251     0.3434546809
Bq        -0.8844757572     0.1637011411     0.3311896662
Bq        -0.8839892801     0.2121710570     0.3189246515
Bq        -0.8835028030     0.2606409730     0.3066596368
Bq        -0.8830163258     0.3091108890     0.2943946221
Bq        -0.8825298487     0.3575808049     0.2821296074
Bq        -0.8820433716     0.4060507209     0.2698645927
Bq        -0.8815568945     0.4545206369     0.2575995779
Bq        -0.8810704174     0.5029905529     0.2453345632
Bq        -0.8805839403     0.5514604688     0.2330695485
Bq        -0.8800974632     0.5999303848     0.2208045338
Bq        -0.8796109861     0.6484003008     0.2085395191
Bq        -0.8791245089     0.6968702167     0.1962745044
Bq        -0.8786380318     0.7453401327     0.1840094897
Bq        -0.8781515547     0.7938100487     0.1717444750
Bq        -0.8776650776     0.8422799646     0.1594794602
Bq        -0.8771786005     0.8907498806     0.1472144455
Bq        -0.8766921234     0.9392197966     0.1349494308
Bq        -0.8762056463     0.9876897125     0.1226844161
Bq        -0.8757191692     1.0361596285     0.1104194014
Bq        -0.8752326920     1.0846295445     0.0981543867
Bq        -0.8747462149     1.1330994605     0.0858893720
Bq        -0.8742597378     1.1815693764     0.0736243572
Bq        -0.8737732607     1.2300392924     0.0613593425

1
2
3
4
5
6
7
8
9
10
11
12
13
14
15
16
17
18
19
20
21
22
23
24
25
26
27
28
29
30
31
32
33
34
35
36
37
38
39
40
41
42
43
44
45
46
47
48
49
50
51
52
53
54
55
56
57
58
59
60
61
62
63
64
65
66
67
68
69
70
71
72
73
74
75
76
77
78
79
80
81
82
83
84
85
86
87
88
89
90
91
92
93
94
95
96
97
98
99
100
101
102
103
104
105
106
107
108
109
110
111
112
113
114
115
116
117
118
119
120
121
122
123
124
125
126
127
128
129
130
131
132
133
134
135
136
137
138
139
140
141
142
143
144
145
146
147
148
149
150
151
152
153
154
155
156
157
158
159
160
161
162
163
164
165
166
167
168
169
170
171
172
173
174
175
176
177
178
179
180
181
182
183
184
185
186
187
188
189
190
191
192
193
194
195
196
197
198
199
200
201
202
203
204
205
206
207
208
209
210
211
212
213
214
215
216
217
218
219
220
221
222
223
224
225
226
227
228
229
230
231
232
233
234
235
236

