%nproc=8
%mem=1000MB
# rb3lyp/6-311+g** NMR geom=connectivity

Title

0 1
C    -4.0500558   -0.5771862    0.8136712
H    -5.0263804   -1.0082727    1.0024760
C    -3.9381552    0.6617804    0.2400876
H    -4.8252424    1.2338890   -0.0111295
C    -2.6768410    1.2433246    0.0057578
C    -1.4974121    0.5051527    0.2848253
C    -1.6508332   -0.7338728    0.9404026
H    -0.7713646   -1.2730967    1.2633753
C    -2.8898548   -1.2624035    1.1994307
H    -2.9683706   -2.2124563    1.7152676
C    -2.5773185    2.5963696   -0.4192930
H    -3.4870728    3.1412239   -0.6474055
C    -1.3741895    3.2147896   -0.4364030
H    -1.2997315    4.2742019   -0.6578144
C    -0.1719488    2.4994090   -0.1734588
C    -0.2043917    1.1018437    0.0192689
C     1.0513491    3.2042560   -0.0676222
H     1.0427344    4.2819499   -0.1896997
C     2.1942091    2.5487446    0.2579577
H     3.1168527    3.0912848    0.4334727
C     2.2216473    1.1336562    0.2934990
C     1.0486931    0.3945528    0.0302412
C     3.4483363    0.4614633    0.5573939
H     4.3095794    1.0606054    0.8334846
C     3.5427346   -0.8855926    0.4749463
H     4.4731467   -1.3939704    0.7038822
C     2.4490052   -1.6474447   -0.0196319
C     1.2150704   -1.0057258   -0.3013573
C     0.2531113   -1.7434440   -1.0216591
H    -0.6541356   -1.2535051   -1.3462847
C     0.4494193   -3.0628597   -1.3413779
H    -0.3083162   -3.5944309   -1.9054060
C     1.6251726   -3.7207967   -0.9552541
H     1.7670048   -4.7687404   -1.1927019
C     2.6109872   -3.0144177   -0.3183050
H     3.5525612   -3.4902813   -0.0646367
Bq         1.7596435408     1.0147099936     0.2075747467
Bq         1.7599996078     1.0646496013     0.2051439443
Bq         1.7603556748     1.1145892090     0.2027131419
Bq         1.7607117417     1.1645288167     0.2002823395
Bq         1.7610678087     1.2144684244     0.1978515371
Bq         1.7614238757     1.2644080321     0.1954207347
Bq         1.7617799427     1.3143476398     0.1929899324
Bq         1.7621360096     1.3642872475     0.1905591300
Bq         1.7624920766     1.4142268552     0.1881283276
Bq         1.7628481436     1.4641664628     0.1856975252
Bq         1.7632042105     1.5141060705     0.1832667228
Bq         1.7635602775     1.5640456782     0.1808359204
Bq         1.7639163445     1.6139852859     0.1784051181
Bq         1.7642724115     1.6639248936     0.1759743157
Bq         1.7646284784     1.7138645013     0.1735435133
Bq         1.7649845454     1.7638041090     0.1711127109
Bq         1.7653406124     1.8137437167     0.1686819085
Bq         1.7656966793     1.8636833244     0.1662511061
Bq         1.7660527463     1.9136229320     0.1638203038
Bq         1.7664088133     1.9635625397     0.1613895014
Bq         1.7667648803     2.0135021474     0.1589586990
Bq         1.7671209472     2.0634417551     0.1565278966
Bq         1.7674770142     2.1133813628     0.1540970942
Bq         1.7678330812     2.1633209705     0.1516662918
Bq         1.7681891481     2.2132605782     0.1492354895
Bq         1.7685452151     2.2632001859     0.1468046871
Bq         1.7689012821     2.3131397936     0.1443738847
Bq         1.7692573490     2.3630794012     0.1419430823
Bq         1.7696134160     2.4130190089     0.1395122799
Bq         1.7699694830     2.4629586166     0.1370814775
Bq         1.7703255500     2.5128982243     0.1346506752
Bq         1.7706816169     2.5628378320     0.1322198728
Bq         1.7710376839     2.6127774397     0.1297890704
Bq         1.7713937509     2.6627170474     0.1273582680
Bq         1.7717498178     2.7126566551     0.1249274656
Bq         1.7721058848     2.7625962627     0.1224966632
Bq         1.7724619518     2.8125358704     0.1200658609
Bq         1.7728180188     2.8624754781     0.1176350585
Bq         1.7731740857     2.9124150858     0.1152042561
Bq         1.7735301527     2.9623546935     0.1127734537
Bq         1.7738862197     3.0122943012     0.1103426513
Bq         1.7742422866     3.0622339089     0.1079118489
Bq         1.7745983536     3.1121735166     0.1054810466
Bq         1.7749544206     3.1621131243     0.1030502442
Bq         1.7753104876     3.2120527319     0.1006194418
Bq         1.7756665545     3.2619923396     0.0981886394
Bq         1.7760226215     3.3119319473     0.0957578370
Bq         1.7763786885     3.3618715550     0.0933270346
Bq         1.7767347554     3.4118111627     0.0908962323
Bq         1.7770908224     3.4617507704     0.0884654299
Bq         1.7774468894     3.5116903781     0.0860346275
Bq         1.7778029563     3.5616299858     0.0836038251
Bq         1.7781590233     3.6115695935     0.0811730227
Bq         1.7785150903     3.6615092011     0.0787422203
Bq         1.7788711573     3.7114488088     0.0763114180
Bq         1.7792272242     3.7613884165     0.0738806156
Bq         1.7795832912     3.8113280242     0.0714498132
Bq         1.7799393582     3.8612676319     0.0690190108
Bq         1.7802954251     3.9112072396     0.0665882084
Bq         1.7806514921     3.9611468473     0.0641574060
Bq         1.7810075591     4.0110864550     0.0617266037
Bq         1.7813636261     4.0610260627     0.0592958013
Bq         1.7817196930     4.1109656703     0.0568649989
Bq         1.7820757600     4.1609052780     0.0544341965
Bq         1.7824318270     4.2108448857     0.0520033941
Bq         1.7827878939     4.2607844934     0.0495725917
Bq         1.7831439609     4.3107241011     0.0471417894
Bq         1.7970093258    -0.6832366678     0.2974687571
Bq         1.7973653927    -0.6332970601     0.2950379548
Bq         1.7977214597    -0.5833574524     0.2926071524
Bq         1.7980775267    -0.5334178447     0.2901763500
Bq         1.7984335936    -0.4834782370     0.2877455476
Bq         1.7987896606    -0.4335386293     0.2853147452
Bq         1.7991457276    -0.3835990216     0.2828839428
Bq         1.7995017946    -0.3336594139     0.2804531405
Bq         1.7998578615    -0.2837198063     0.2780223381
Bq         1.8002139285    -0.2337801986     0.2755915357
Bq         1.8005699955    -0.1838405909     0.2731607333
Bq         1.8009260624    -0.1339009832     0.2707299309
Bq         1.8012821294    -0.0839613755     0.2682991285
Bq         1.8016381964    -0.0340217678     0.2658683262
Bq         1.8019942634     0.0159178399     0.2634375238
Bq         1.8023503303     0.0658574476     0.2610067214
Bq         1.8027063973     0.1157970553     0.2585759190
Bq         1.8030624643     0.1657366629     0.2561451166
Bq         1.8034185312     0.2156762706     0.2537143142
Bq         1.8037745982     0.2656158783     0.2512835119
Bq         1.8041306652     0.3155554860     0.2488527095
Bq         1.8044867322     0.3654950937     0.2464219071
Bq         1.8048427991     0.4154347014     0.2439911047
Bq         1.8051988661     0.4653743091     0.2415603023
Bq         1.8055549331     0.5153139168     0.2391294999
Bq         1.8059110000     0.5652535245     0.2366986976
Bq         1.8062670670     0.6151931321     0.2342678952
Bq         1.8066231340     0.6651327398     0.2318370928
Bq         1.8069792009     0.7150723475     0.2294062904
Bq         1.8073352679     0.7650119552     0.2269754880
Bq         1.8076913349     0.8149515629     0.2245446856
Bq         1.8080474019     0.8648911706     0.2221138833
Bq         1.8084034688     0.9148307783     0.2196830809
Bq         1.8087595358     0.9647703860     0.2172522785
Bq         1.8091156028     1.0147099936     0.2148214761
Bq         1.8094716697     1.0646496013     0.2123906737
Bq         1.8098277367     1.1145892090     0.2099598713
Bq         1.8101838037     1.1645288167     0.2075290690
Bq         1.8105398707     1.2144684244     0.2050982666
Bq         1.8108959376     1.2644080321     0.2026674642
Bq         1.8112520046     1.3143476398     0.2002366618
Bq         1.8116080716     1.3642872475     0.1978058594
Bq         1.8119641385     1.4142268552     0.1953750570
Bq         1.8123202055     1.4641664628     0.1929442547
Bq         1.8126762725     1.5141060705     0.1905134523
Bq         1.8130323395     1.5640456782     0.1880826499
Bq         1.8133884064     1.6139852859     0.1856518475
Bq         1.8137444734     1.6639248936     0.1832210451
Bq         1.8141005404     1.7138645013     0.1807902427
Bq         1.8144566073     1.7638041090     0.1783594404
Bq         1.8148126743     1.8137437167     0.1759286380
Bq         1.8151687413     1.8636833244     0.1734978356
Bq         1.8155248082     1.9136229320     0.1710670332
Bq         1.8158808752     1.9635625397     0.1686362308
Bq         1.8162369422     2.0135021474     0.1662054284
Bq         1.8165930092     2.0634417551     0.1637746261
Bq         1.8169490761     2.1133813628     0.1613438237
Bq         1.8173051431     2.1633209705     0.1589130213
Bq         1.8176612101     2.2132605782     0.1564822189
Bq         1.8180172770     2.2632001859     0.1540514165
Bq         1.8183733440     2.3131397936     0.1516206141
Bq         1.8187294110     2.3630794012     0.1491898118
Bq         1.8190854780     2.4130190089     0.1467590094
Bq         1.8194415449     2.4629586166     0.1443282070
Bq         1.8197976119     2.5128982243     0.1418974046
Bq         1.8201536789     2.5628378320     0.1394666022
Bq         1.8205097458     2.6127774397     0.1370357998
Bq         1.8208658128     2.6627170474     0.1346049975
Bq         1.8212218798     2.7126566551     0.1321741951
Bq         1.8215779468     2.7625962627     0.1297433927
Bq         1.8219340137     2.8125358704     0.1273125903
Bq         1.8222900807     2.8624754781     0.1248817879
Bq         1.8226461477     2.9124150858     0.1224509855
Bq         1.8230022146     2.9623546935     0.1200201832
Bq         1.8233582816     3.0122943012     0.1175893808
Bq         1.8237143486     3.0622339089     0.1151585784
Bq         1.8240704155     3.1121735166     0.1127277760
Bq         1.8244264825     3.1621131243     0.1102969736
Bq         1.8247825495     3.2120527319     0.1078661712
Bq         1.8251386165     3.2619923396     0.1054353689
Bq         1.8254946834     3.3119319473     0.1030045665
Bq         1.8258507504     3.3618715550     0.1005737641
Bq         1.8262068174     3.4118111627     0.0981429617
Bq         1.8265628843     3.4617507704     0.0957121593
Bq         1.8269189513     3.5116903781     0.0932813569
Bq         1.8272750183     3.5616299858     0.0908505546
Bq         1.8276310853     3.6115695935     0.0884197522
Bq         1.8279871522     3.6615092011     0.0859889498
Bq         1.8283432192     3.7114488088     0.0835581474
Bq         1.8286992862     3.7613884165     0.0811273450
Bq         1.8290553531     3.8113280242     0.0786965426
Bq         1.8294114201     3.8612676319     0.0762657403
Bq         1.8297674871     3.9112072396     0.0738349379
Bq         1.8301235541     3.9611468473     0.0714041355
Bq         1.8304796210     4.0110864550     0.0689733331
Bq         1.8308356880     4.0610260627     0.0665425307
Bq         1.8311917550     4.1109656703     0.0641117283
Bq         1.8315478219     4.1609052780     0.0616809260
Bq         1.8319038889     4.2108448857     0.0592501236
Bq         1.8322599559     4.2607844934     0.0568193212
Bq         1.8326160228     4.3107241011     0.0543885188
Bq         1.8464813877    -0.6832366678     0.3047154866
Bq         1.8468374547    -0.6332970601     0.3022846842
Bq         1.8471935216    -0.5833574524     0.2998538818
Bq         1.8475495886    -0.5334178447     0.2974230794
Bq         1.8479056556    -0.4834782370     0.2949922771
Bq         1.8482617226    -0.4335386293     0.2925614747
Bq         1.8486177895    -0.3835990216     0.2901306723
Bq         1.8489738565    -0.3336594139     0.2876998699
Bq         1.8493299235    -0.2837198063     0.2852690675
Bq         1.8496859904    -0.2337801986     0.2828382651
Bq         1.8500420574    -0.1838405909     0.2804074628
Bq         1.8503981244    -0.1339009832     0.2779766604
Bq         1.8507541913    -0.0839613755     0.2755458580
Bq         1.8511102583    -0.0340217678     0.2731150556
Bq         1.8514663253     0.0159178399     0.2706842532
Bq         1.8518223923     0.0658574476     0.2682534508
Bq         1.8521784592     0.1157970553     0.2658226485
Bq         1.8525345262     0.1657366629     0.2633918461
Bq         1.8528905932     0.2156762706     0.2609610437
Bq         1.8532466601     0.2656158783     0.2585302413
Bq         1.8536027271     0.3155554860     0.2560994389
Bq         1.8539587941     0.3654950937     0.2536686365
Bq         1.8543148611     0.4154347014     0.2512378342
Bq         1.8546709280     0.4653743091     0.2488070318
Bq         1.8550269950     0.5153139168     0.2463762294
Bq         1.8553830620     0.5652535245     0.2439454270
Bq         1.8557391289     0.6151931321     0.2415146246
Bq         1.8560951959     0.6651327398     0.2390838222
Bq         1.8564512629     0.7150723475     0.2366530199
Bq         1.8568073299     0.7650119552     0.2342222175
Bq         1.8571633968     0.8149515629     0.2317914151
Bq         1.8575194638     0.8648911706     0.2293606127

1
2
3
4
5
6
7
8
9
10
11
12
13
14
15
16
17
18
19
20
21
22
23
24
25
26
27
28
29
30
31
32
33
34
35
36
37
38
39
40
41
42
43
44
45
46
47
48
49
50
51
52
53
54
55
56
57
58
59
60
61
62
63
64
65
66
67
68
69
70
71
72
73
74
75
76
77
78
79
80
81
82
83
84
85
86
87
88
89
90
91
92
93
94
95
96
97
98
99
100
101
102
103
104
105
106
107
108
109
110
111
112
113
114
115
116
117
118
119
120
121
122
123
124
125
126
127
128
129
130
131
132
133
134
135
136
137
138
139
140
141
142
143
144
145
146
147
148
149
150
151
152
153
154
155
156
157
158
159
160
161
162
163
164
165
166
167
168
169
170
171
172
173
174
175
176
177
178
179
180
181
182
183
184
185
186
187
188
189
190
191
192
193
194
195
196
197
198
199
200
201
202
203
204
205
206
207
208
209
210
211
212
213
214
215
216
217
218
219
220
221
222
223
224
225
226
227
228
229
230
231
232
233
234
235
236

