%nproc=8
%mem=1000MB
# rb3lyp/6-311+g** NMR geom=connectivity

Title

0 1
C    -4.0500558   -0.5771862    0.8136712
H    -5.0263804   -1.0082727    1.0024760
C    -3.9381552    0.6617804    0.2400876
H    -4.8252424    1.2338890   -0.0111295
C    -2.6768410    1.2433246    0.0057578
C    -1.4974121    0.5051527    0.2848253
C    -1.6508332   -0.7338728    0.9404026
H    -0.7713646   -1.2730967    1.2633753
C    -2.8898548   -1.2624035    1.1994307
H    -2.9683706   -2.2124563    1.7152676
C    -2.5773185    2.5963696   -0.4192930
H    -3.4870728    3.1412239   -0.6474055
C    -1.3741895    3.2147896   -0.4364030
H    -1.2997315    4.2742019   -0.6578144
C    -0.1719488    2.4994090   -0.1734588
C    -0.2043917    1.1018437    0.0192689
C     1.0513491    3.2042560   -0.0676222
H     1.0427344    4.2819499   -0.1896997
C     2.1942091    2.5487446    0.2579577
H     3.1168527    3.0912848    0.4334727
C     2.2216473    1.1336562    0.2934990
C     1.0486931    0.3945528    0.0302412
C     3.4483363    0.4614633    0.5573939
H     4.3095794    1.0606054    0.8334846
C     3.5427346   -0.8855926    0.4749463
H     4.4731467   -1.3939704    0.7038822
C     2.4490052   -1.6474447   -0.0196319
C     1.2150704   -1.0057258   -0.3013573
C     0.2531113   -1.7434440   -1.0216591
H    -0.6541356   -1.2535051   -1.3462847
C     0.4494193   -3.0628597   -1.3413779
H    -0.3083162   -3.5944309   -1.9054060
C     1.6251726   -3.7207967   -0.9552541
H     1.7670048   -4.7687404   -1.1927019
C     2.6109872   -3.0144177   -0.3183050
H     3.5525612   -3.4902813   -0.0646367
Bq         3.0366594099    -0.2837198063     0.4591905745
Bq         3.0370154769    -0.2337801986     0.4567597721
Bq         3.0373715439    -0.1838405909     0.4543289697
Bq         3.0377276108    -0.1339009832     0.4518981673
Bq         3.0380836778    -0.0839613755     0.4494673650
Bq         3.0384397448    -0.0340217678     0.4470365626
Bq         3.0387958117     0.0159178399     0.4446057602
Bq         3.0391518787     0.0658574476     0.4421749578
Bq         3.0395079457     0.1157970553     0.4397441554
Bq         3.0398640127     0.1657366629     0.4373133530
Bq         3.0402200796     0.2156762706     0.4348825507
Bq         3.0405761466     0.2656158783     0.4324517483
Bq         3.0409322136     0.3155554860     0.4300209459
Bq         3.0412882805     0.3654950937     0.4275901435
Bq         3.0416443475     0.4154347014     0.4251593411
Bq         3.0420004145     0.4653743091     0.4227285388
Bq         3.0423564815     0.5153139168     0.4202977364
Bq         3.0427125484     0.5652535245     0.4178669340
Bq         3.0430686154     0.6151931321     0.4154361316
Bq         3.0434246824     0.6651327398     0.4130053292
Bq         3.0437807493     0.7150723475     0.4105745268
Bq         3.0441368163     0.7650119552     0.4081437245
Bq         3.0444928833     0.8149515629     0.4057129221
Bq         3.0448489503     0.8648911706     0.4032821197
Bq         3.0452050172     0.9148307783     0.4008513173
Bq         3.0455610842     0.9647703860     0.3984205149
Bq         3.0459171512     1.0147099936     0.3959897125
Bq         3.0462732181     1.0646496013     0.3935589102
Bq         3.0466292851     1.1145892090     0.3911281078
Bq         3.0469853521     1.1645288167     0.3886973054
Bq         3.0473414191     1.2144684244     0.3862665030
Bq         3.0476974860     1.2644080321     0.3838357006
Bq         3.0480535530     1.3143476398     0.3814048982
Bq         3.0484096200     1.3642872475     0.3789740959
Bq         3.0487656869     1.4142268552     0.3765432935
Bq         3.0491217539     1.4641664628     0.3741124911
Bq         3.0494778209     1.5141060705     0.3716816887
Bq         3.0498338878     1.5640456782     0.3692508863
Bq         3.0501899548     1.6139852859     0.3668200839
Bq         3.0505460218     1.6639248936     0.3643892816
Bq         3.0509020888     1.7138645013     0.3619584792
Bq         3.0512581557     1.7638041090     0.3595276768
Bq         3.0516142227     1.8137437167     0.3570968744
Bq         3.0519702897     1.8636833244     0.3546660720
Bq         3.0523263566     1.9136229320     0.3522352696
Bq         3.0526824236     1.9635625397     0.3498044673
Bq         3.0530384906     2.0135021474     0.3473736649
Bq         3.0533945576     2.0634417551     0.3449428625
Bq         3.0537506245     2.1133813628     0.3425120601
Bq         3.0541066915     2.1633209705     0.3400812577
Bq         3.0544627585     2.2132605782     0.3376504553
Bq         3.0548188254     2.2632001859     0.3352196530
Bq         3.0551748924     2.3131397936     0.3327888506
Bq         3.0555309594     2.3630794012     0.3303580482
Bq         3.0558870264     2.4130190089     0.3279272458
Bq         3.0562430933     2.4629586166     0.3254964434
Bq         3.0565991603     2.5128982243     0.3230656410
Bq         3.0569552273     2.5628378320     0.3206348387
Bq         3.0573112942     2.6127774397     0.3182040363
Bq         3.0576673612     2.6627170474     0.3157732339
Bq         3.0580234282     2.7126566551     0.3133424315
Bq         3.0583794951     2.7625962627     0.3109116291
Bq         3.0587355621     2.8125358704     0.3084808267
Bq         3.0590916291     2.8624754781     0.3060500244
Bq         3.0594476961     2.9124150858     0.3036192220
Bq         3.0598037630     2.9623546935     0.3011884196
Bq         3.0601598300     3.0122943012     0.2987576172
Bq         3.0605158970     3.0622339089     0.2963268148
Bq         3.0608719639     3.1121735166     0.2938960124
Bq         3.0612280309     3.1621131243     0.2914652101
Bq         3.0615840979     3.2120527319     0.2890344077
Bq         3.0619401649     3.2619923396     0.2866036053
Bq         3.0622962318     3.3119319473     0.2841728029
Bq         3.0626522988     3.3618715550     0.2817420005
Bq         3.0630083658     3.4118111627     0.2793111981
Bq         3.0633644327     3.4617507704     0.2768803958
Bq         3.0637204997     3.5116903781     0.2744495934
Bq         3.0640765667     3.5616299858     0.2720187910
Bq         3.0644326337     3.6115695935     0.2695879886
Bq         3.0647887006     3.6615092011     0.2671571862
Bq         3.0651447676     3.7114488088     0.2647263838
Bq         3.0655008346     3.7613884165     0.2622955815
Bq         3.0658569015     3.8113280242     0.2598647791
Bq         3.0662129685     3.8612676319     0.2574339767
Bq         3.0665690355     3.9112072396     0.2550031743
Bq         3.0669251024     3.9611468473     0.2525723719
Bq         3.0672811694     4.0110864550     0.2501415695
Bq         3.0676372364     4.0610260627     0.2477107672
Bq         3.0679933034     4.1109656703     0.2452799648
Bq         3.0683493703     4.1609052780     0.2428491624
Bq         3.0687054373     4.2108448857     0.2404183600
Bq         3.0690615043     4.2607844934     0.2379875576
Bq         3.0694175712     4.3107241011     0.2355567552
Bq         3.0832829361    -0.6832366678     0.4858837230
Bq         3.0836390031    -0.6332970601     0.4834529206
Bq         3.0839950700    -0.5833574524     0.4810221183
Bq         3.0843511370    -0.5334178447     0.4785913159
Bq         3.0847072040    -0.4834782370     0.4761605135
Bq         3.0850632709    -0.4335386293     0.4737297111
Bq         3.0854193379    -0.3835990216     0.4712989087
Bq         3.0857754049    -0.3336594139     0.4688681063
Bq         3.0861314719    -0.2837198063     0.4664373040
Bq         3.0864875388    -0.2337801986     0.4640065016
Bq         3.0868436058    -0.1838405909     0.4615756992
Bq         3.0871996728    -0.1339009832     0.4591448968
Bq         3.0875557397    -0.0839613755     0.4567140944
Bq         3.0879118067    -0.0340217678     0.4542832920
Bq         3.0882678737     0.0159178399     0.4518524897
Bq         3.0886239407     0.0658574476     0.4494216873
Bq         3.0889800076     0.1157970553     0.4469908849
Bq         3.0893360746     0.1657366629     0.4445600825
Bq         3.0896921416     0.2156762706     0.4421292801
Bq         3.0900482085     0.2656158783     0.4396984777
Bq         3.0904042755     0.3155554860     0.4372676754
Bq         3.0907603425     0.3654950937     0.4348368730
Bq         3.0911164095     0.4154347014     0.4324060706
Bq         3.0914724764     0.4653743091     0.4299752682
Bq         3.0918285434     0.5153139168     0.4275444658
Bq         3.0921846104     0.5652535245     0.4251136634
Bq         3.0925406773     0.6151931321     0.4226828611
Bq         3.0928967443     0.6651327398     0.4202520587
Bq         3.0932528113     0.7150723475     0.4178212563
Bq         3.0936088782     0.7650119552     0.4153904539
Bq         3.0939649452     0.8149515629     0.4129596515
Bq         3.0943210122     0.8648911706     0.4105288491
Bq         3.0946770792     0.9148307783     0.4080980468
Bq         3.0950331461     0.9647703860     0.4056672444
Bq         3.0953892131     1.0147099936     0.4032364420
Bq         3.0957452801     1.0646496013     0.4008056396
Bq         3.0961013470     1.1145892090     0.3983748372
Bq         3.0964574140     1.1645288167     0.3959440348
Bq         3.0968134810     1.2144684244     0.3935132325
Bq         3.0971695480     1.2644080321     0.3910824301
Bq         3.0975256149     1.3143476398     0.3886516277
Bq         3.0978816819     1.3642872475     0.3862208253
Bq         3.0982377489     1.4142268552     0.3837900229
Bq         3.0985938158     1.4641664628     0.3813592205
Bq         3.0989498828     1.5141060705     0.3789284182
Bq         3.0993059498     1.5640456782     0.3764976158
Bq         3.0996620168     1.6139852859     0.3740668134
Bq         3.1000180837     1.6639248936     0.3716360110
Bq         3.1003741507     1.7138645013     0.3692052086
Bq         3.1007302177     1.7638041090     0.3667744062
Bq         3.1010862846     1.8137437167     0.3643436039
Bq         3.1014423516     1.8636833244     0.3619128015
Bq         3.1017984186     1.9136229320     0.3594819991
Bq         3.1021544855     1.9635625397     0.3570511967
Bq         3.1025105525     2.0135021474     0.3546203943
Bq         3.1028666195     2.0634417551     0.3521895919
Bq         3.1032226865     2.1133813628     0.3497587896
Bq         3.1035787534     2.1633209705     0.3473279872
Bq         3.1039348204     2.2132605782     0.3448971848
Bq         3.1042908874     2.2632001859     0.3424663824
Bq         3.1046469543     2.3131397936     0.3400355800
Bq         3.1050030213     2.3630794012     0.3376047776
Bq         3.1053590883     2.4130190089     0.3351739753
Bq         3.1057151553     2.4629586166     0.3327431729
Bq         3.1060712222     2.5128982243     0.3303123705
Bq         3.1064272892     2.5628378320     0.3278815681
Bq         3.1067833562     2.6127774397     0.3254507657
Bq         3.1071394231     2.6627170474     0.3230199633
Bq         3.1074954901     2.7126566551     0.3205891610
Bq         3.1078515571     2.7625962627     0.3181583586
Bq         3.1082076241     2.8125358704     0.3157275562
Bq         3.1085636910     2.8624754781     0.3132967538
Bq         3.1089197580     2.9124150858     0.3108659514
Bq         3.1092758250     2.9623546935     0.3084351490
Bq         3.1096318919     3.0122943012     0.3060043467
Bq         3.1099879589     3.0622339089     0.3035735443
Bq         3.1103440259     3.1121735166     0.3011427419
Bq         3.1107000928     3.1621131243     0.2987119395
Bq         3.1110561598     3.2120527319     0.2962811371
Bq         3.1114122268     3.2619923396     0.2938503347
Bq         3.1117682938     3.3119319473     0.2914195324
Bq         3.1121243607     3.3618715550     0.2889887300
Bq         3.1124804277     3.4118111627     0.2865579276
Bq         3.1128364947     3.4617507704     0.2841271252
Bq         3.1131925616     3.5116903781     0.2816963228
Bq         3.1135486286     3.5616299858     0.2792655204
Bq         3.1139046956     3.6115695935     0.2768347181
Bq         3.1142607626     3.6615092011     0.2744039157
Bq         3.1146168295     3.7114488088     0.2719731133
Bq         3.1149728965     3.7613884165     0.2695423109
Bq         3.1153289635     3.8113280242     0.2671115085
Bq         3.1156850304     3.8612676319     0.2646807061
Bq         3.1160410974     3.9112072396     0.2622499038
Bq         3.1163971644     3.9611468473     0.2598191014
Bq         3.1167532314     4.0110864550     0.2573882990
Bq         3.1171092983     4.0610260627     0.2549574966
Bq         3.1174653653     4.1109656703     0.2525266942
Bq         3.1178214323     4.1609052780     0.2500958918
Bq         3.1181774992     4.2108448857     0.2476650895
Bq         3.1185335662     4.2607844934     0.2452342871
Bq         3.1188896332     4.3107241011     0.2428034847
Bq         3.1327549980    -0.6832366678     0.4931304525
Bq         3.1331110650    -0.6332970601     0.4906996501
Bq         3.1334671320    -0.5833574524     0.4882688477
Bq         3.1338231989    -0.5334178447     0.4858380453
Bq         3.1341792659    -0.4834782370     0.4834072429
Bq         3.1345353329    -0.4335386293     0.4809764406

1
2
3
4
5
6
7
8
9
10
11
12
13
14
15
16
17
18
19
20
21
22
23
24
25
26
27
28
29
30
31
32
33
34
35
36
37
38
39
40
41
42
43
44
45
46
47
48
49
50
51
52
53
54
55
56
57
58
59
60
61
62
63
64
65
66
67
68
69
70
71
72
73
74
75
76
77
78
79
80
81
82
83
84
85
86
87
88
89
90
91
92
93
94
95
96
97
98
99
100
101
102
103
104
105
106
107
108
109
110
111
112
113
114
115
116
117
118
119
120
121
122
123
124
125
126
127
128
129
130
131
132
133
134
135
136
137
138
139
140
141
142
143
144
145
146
147
148
149
150
151
152
153
154
155
156
157
158
159
160
161
162
163
164
165
166
167
168
169
170
171
172
173
174
175
176
177
178
179
180
181
182
183
184
185
186
187
188
189
190
191
192
193
194
195
196
197
198
199
200
201
202
203
204
205
206
207
208
209
210
211
212
213
214
215
216
217
218
219
220
221
222
223
224
225
226
227
228
229
230
231
232
233
234
235
236

