%nproc=8
%mem=1000MB
# rb3lyp/6-311+g** NMR geom=connectivity

Title

0 1
C    -4.0500558   -0.5771862    0.8136712
H    -5.0263804   -1.0082727    1.0024760
C    -3.9381552    0.6617804    0.2400876
H    -4.8252424    1.2338890   -0.0111295
C    -2.6768410    1.2433246    0.0057578
C    -1.4974121    0.5051527    0.2848253
C    -1.6508332   -0.7338728    0.9404026
H    -0.7713646   -1.2730967    1.2633753
C    -2.8898548   -1.2624035    1.1994307
H    -2.9683706   -2.2124563    1.7152676
C    -2.5773185    2.5963696   -0.4192930
H    -3.4870728    3.1412239   -0.6474055
C    -1.3741895    3.2147896   -0.4364030
H    -1.2997315    4.2742019   -0.6578144
C    -0.1719488    2.4994090   -0.1734588
C    -0.2043917    1.1018437    0.0192689
C     1.0513491    3.2042560   -0.0676222
H     1.0427344    4.2819499   -0.1896997
C     2.1942091    2.5487446    0.2579577
H     3.1168527    3.0912848    0.4334727
C     2.2216473    1.1336562    0.2934990
C     1.0486931    0.3945528    0.0302412
C     3.4483363    0.4614633    0.5573939
H     4.3095794    1.0606054    0.8334846
C     3.5427346   -0.8855926    0.4749463
H     4.4731467   -1.3939704    0.7038822
C     2.4490052   -1.6474447   -0.0196319
C     1.2150704   -1.0057258   -0.3013573
C     0.2531113   -1.7434440   -1.0216591
H    -0.6541356   -1.2535051   -1.3462847
C     0.4494193   -3.0628597   -1.3413779
H    -0.3083162   -3.5944309   -1.9054060
C     1.6251726   -3.7207967   -0.9552541
H     1.7670048   -4.7687404   -1.1927019
C     2.6109872   -3.0144177   -0.3183050
H     3.5525612   -3.4902813   -0.0646367
Bq        -0.1067642678     2.9124150858    -0.1601714633
Bq        -0.1064082009     2.9623546935    -0.1626022657
Bq        -0.1060521339     3.0122943012    -0.1650330680
Bq        -0.1056960669     3.0622339089    -0.1674638704
Bq        -0.1053399999     3.1121735166    -0.1698946728
Bq        -0.1049839330     3.1621131243    -0.1723254752
Bq        -0.1046278660     3.2120527319    -0.1747562776
Bq        -0.1042717990     3.2619923396    -0.1771870800
Bq        -0.1039157321     3.3119319473    -0.1796178823
Bq        -0.1035596651     3.3618715550    -0.1820486847
Bq        -0.1032035981     3.4118111627    -0.1844794871
Bq        -0.1028475312     3.4617507704    -0.1869102895
Bq        -0.1024914642     3.5116903781    -0.1893410919
Bq        -0.1021353972     3.5616299858    -0.1917718943
Bq        -0.1017793302     3.6115695935    -0.1942026966
Bq        -0.1014232633     3.6615092011    -0.1966334990
Bq        -0.1010671963     3.7114488088    -0.1990643014
Bq        -0.1007111293     3.7613884165    -0.2014951038
Bq        -0.1003550624     3.8113280242    -0.2039259062
Bq        -0.0999989954     3.8612676319    -0.2063567086
Bq        -0.0996429284     3.9112072396    -0.2087875109
Bq        -0.0992868614     3.9611468473    -0.2112183133
Bq        -0.0989307945     4.0110864550    -0.2136491157
Bq        -0.0985747275     4.0610260627    -0.2160799181
Bq        -0.0982186605     4.1109656703    -0.2185107205
Bq        -0.0978625936     4.1609052780    -0.2209415229
Bq        -0.0975065266     4.2108448857    -0.2233723252
Bq        -0.0971504596     4.2607844934    -0.2258031276
Bq        -0.0967943926     4.3107241011    -0.2282339300
Bq        -0.0829290278    -0.6832366678     0.0220930378
Bq        -0.0825729608    -0.6332970601     0.0196622354
Bq        -0.0822168939    -0.5833574524     0.0172314330
Bq        -0.0818608269    -0.5334178447     0.0148006306
Bq        -0.0815047599    -0.4834782370     0.0123698282
Bq        -0.0811486929    -0.4335386293     0.0099390259
Bq        -0.0807926260    -0.3835990216     0.0075082235
Bq        -0.0804365590    -0.3336594139     0.0050774211
Bq        -0.0800804920    -0.2837198063     0.0026466187
Bq        -0.0797244251    -0.2337801986     0.0002158163
Bq        -0.0793683581    -0.1838405909    -0.0022149861
Bq        -0.0790122911    -0.1339009832    -0.0046457884
Bq        -0.0786562241    -0.0839613755    -0.0070765908
Bq        -0.0783001572    -0.0340217678    -0.0095073932
Bq        -0.0779440902     0.0159178399    -0.0119381956
Bq        -0.0775880232     0.0658574476    -0.0143689980
Bq        -0.0772319563     0.1157970553    -0.0167998004
Bq        -0.0768758893     0.1657366629    -0.0192306027
Bq        -0.0765198223     0.2156762706    -0.0216614051
Bq        -0.0761637553     0.2656158783    -0.0240922075
Bq        -0.0758076884     0.3155554860    -0.0265230099
Bq        -0.0754516214     0.3654950937    -0.0289538123
Bq        -0.0750955544     0.4154347014    -0.0313846147
Bq        -0.0747394875     0.4653743091    -0.0338154170
Bq        -0.0743834205     0.5153139168    -0.0362462194
Bq        -0.0740273535     0.5652535245    -0.0386770218
Bq        -0.0736712866     0.6151931321    -0.0411078242
Bq        -0.0733152196     0.6651327398    -0.0435386266
Bq        -0.0729591526     0.7150723475    -0.0459694290
Bq        -0.0726030856     0.7650119552    -0.0484002313
Bq        -0.0722470187     0.8149515629    -0.0508310337
Bq        -0.0718909517     0.8648911706    -0.0532618361
Bq        -0.0715348847     0.9148307783    -0.0556926385
Bq        -0.0711788178     0.9647703860    -0.0581234409
Bq        -0.0708227508     1.0147099936    -0.0605542433
Bq        -0.0704666838     1.0646496013    -0.0629850456
Bq        -0.0701106168     1.1145892090    -0.0654158480
Bq        -0.0697545499     1.1645288167    -0.0678466504
Bq        -0.0693984829     1.2144684244    -0.0702774528
Bq        -0.0690424159     1.2644080321    -0.0727082552
Bq        -0.0686863490     1.3143476398    -0.0751390576
Bq        -0.0683302820     1.3642872475    -0.0775698599
Bq        -0.0679742150     1.4142268552    -0.0800006623
Bq        -0.0676181480     1.4641664628    -0.0824314647
Bq        -0.0672620811     1.5141060705    -0.0848622671
Bq        -0.0669060141     1.5640456782    -0.0872930695
Bq        -0.0665499471     1.6139852859    -0.0897238719
Bq        -0.0661938802     1.6639248936    -0.0921546742
Bq        -0.0658378132     1.7138645013    -0.0945854766
Bq        -0.0654817462     1.7638041090    -0.0970162790
Bq        -0.0651256793     1.8137437167    -0.0994470814
Bq        -0.0647696123     1.8636833244    -0.1018778838
Bq        -0.0644135453     1.9136229320    -0.1043086862
Bq        -0.0640574783     1.9635625397    -0.1067394885
Bq        -0.0637014114     2.0135021474    -0.1091702909
Bq        -0.0633453444     2.0634417551    -0.1116010933
Bq        -0.0629892774     2.1133813628    -0.1140318957
Bq        -0.0626332105     2.1633209705    -0.1164626981
Bq        -0.0622771435     2.2132605782    -0.1188935005
Bq        -0.0619210765     2.2632001859    -0.1213243028
Bq        -0.0615650095     2.3131397936    -0.1237551052
Bq        -0.0612089426     2.3630794012    -0.1261859076
Bq        -0.0608528756     2.4130190089    -0.1286167100
Bq        -0.0604968086     2.4629586166    -0.1310475124
Bq        -0.0601407417     2.5128982243    -0.1334783148
Bq        -0.0597846747     2.5628378320    -0.1359091171
Bq        -0.0594286077     2.6127774397    -0.1383399195
Bq        -0.0590725407     2.6627170474    -0.1407707219
Bq        -0.0587164738     2.7126566551    -0.1432015243
Bq        -0.0583604068     2.7625962627    -0.1456323267
Bq        -0.0580043398     2.8125358704    -0.1480631291
Bq        -0.0576482729     2.8624754781    -0.1504939314
Bq        -0.0572922059     2.9124150858    -0.1529247338
Bq        -0.0569361389     2.9623546935    -0.1553555362
Bq        -0.0565800720     3.0122943012    -0.1577863386
Bq        -0.0562240050     3.0622339089    -0.1602171410
Bq        -0.0558679380     3.1121735166    -0.1626479434
Bq        -0.0555118710     3.1621131243    -0.1650787457
Bq        -0.0551558041     3.2120527319    -0.1675095481
Bq        -0.0547997371     3.2619923396    -0.1699403505
Bq        -0.0544436701     3.3119319473    -0.1723711529
Bq        -0.0540876032     3.3618715550    -0.1748019553
Bq        -0.0537315362     3.4118111627    -0.1772327577
Bq        -0.0533754692     3.4617507704    -0.1796635600
Bq        -0.0530194022     3.5116903781    -0.1820943624
Bq        -0.0526633353     3.5616299858    -0.1845251648
Bq        -0.0523072683     3.6115695935    -0.1869559672
Bq        -0.0519512013     3.6615092011    -0.1893867696
Bq        -0.0515951344     3.7114488088    -0.1918175719
Bq        -0.0512390674     3.7613884165    -0.1942483743
Bq        -0.0508830004     3.8113280242    -0.1966791767
Bq        -0.0505269334     3.8612676319    -0.1991099791
Bq        -0.0501708665     3.9112072396    -0.2015407815
Bq        -0.0498147995     3.9611468473    -0.2039715839
Bq        -0.0494587325     4.0110864550    -0.2064023862
Bq        -0.0491026656     4.0610260627    -0.2088331886
Bq        -0.0487465986     4.1109656703    -0.2112639910
Bq        -0.0483905316     4.1609052780    -0.2136947934
Bq        -0.0480344647     4.2108448857    -0.2161255958
Bq        -0.0476783977     4.2607844934    -0.2185563982
Bq        -0.0473223307     4.3107241011    -0.2209872005
Bq        -0.0334569659    -0.6832366678     0.0293397672
Bq        -0.0331008989    -0.6332970601     0.0269089648
Bq        -0.0327448319    -0.5833574524     0.0244781625
Bq        -0.0323887649    -0.5334178447     0.0220473601
Bq        -0.0320326980    -0.4834782370     0.0196165577
Bq        -0.0316766310    -0.4335386293     0.0171857553
Bq        -0.0313205640    -0.3835990216     0.0147549529
Bq        -0.0309644971    -0.3336594139     0.0123241505
Bq        -0.0306084301    -0.2837198063     0.0098933482
Bq        -0.0302523631    -0.2337801986     0.0074625458
Bq        -0.0298962962    -0.1838405909     0.0050317434
Bq        -0.0295402292    -0.1339009832     0.0026009410
Bq        -0.0291841622    -0.0839613755     0.0001701386
Bq        -0.0288280952    -0.0340217678    -0.0022606638
Bq        -0.0284720283     0.0159178399    -0.0046914661
Bq        -0.0281159613     0.0658574476    -0.0071222685
Bq        -0.0277598943     0.1157970553    -0.0095530709
Bq        -0.0274038274     0.1657366629    -0.0119838733
Bq        -0.0270477604     0.2156762706    -0.0144146757
Bq        -0.0266916934     0.2656158783    -0.0168454780
Bq        -0.0263356264     0.3155554860    -0.0192762804
Bq        -0.0259795595     0.3654950937    -0.0217070828
Bq        -0.0256234925     0.4154347014    -0.0241378852
Bq        -0.0252674255     0.4653743091    -0.0265686876
Bq        -0.0249113586     0.5153139168    -0.0289994900
Bq        -0.0245552916     0.5652535245    -0.0314302923
Bq        -0.0241992246     0.6151931321    -0.0338610947
Bq        -0.0238431576     0.6651327398    -0.0362918971
Bq        -0.0234870907     0.7150723475    -0.0387226995
Bq        -0.0231310237     0.7650119552    -0.0411535019
Bq        -0.0227749567     0.8149515629    -0.0435843043
Bq        -0.0224188898     0.8648911706    -0.0460151066
Bq        -0.0220628228     0.9148307783    -0.0484459090
Bq        -0.0217067558     0.9647703860    -0.0508767114
Bq        -0.0213506889     1.0147099936    -0.0533075138
Bq        -0.0209946219     1.0646496013    -0.0557383162
Bq        -0.0206385549     1.1145892090    -0.0581691186
Bq        -0.0202824879     1.1645288167    -0.0605999209
Bq        -0.0199264210     1.2144684244    -0.0630307233
Bq        -0.0195703540     1.2644080321    -0.0654615257
Bq        -0.0192142870     1.3143476398    -0.0678923281
Bq        -0.0188582201     1.3642872475    -0.0703231305
Bq        -0.0185021531     1.4142268552    -0.0727539329
Bq        -0.0181460861     1.4641664628    -0.0751847352
Bq        -0.0177900191     1.5141060705    -0.0776155376
Bq        -0.0174339522     1.5640456782    -0.0800463400
Bq        -0.0170778852     1.6139852859    -0.0824771424
Bq        -0.0167218182     1.6639248936    -0.0849079448
Bq        -0.0163657513     1.7138645013    -0.0873387472
Bq        -0.0160096843     1.7638041090    -0.0897695495
Bq        -0.0156536173     1.8137437167    -0.0922003519
Bq        -0.0152975503     1.8636833244    -0.0946311543
Bq        -0.0149414834     1.9136229320    -0.0970619567
Bq        -0.0145854164     1.9635625397    -0.0994927591
Bq        -0.0142293494     2.0135021474    -0.1019235615
Bq        -0.0138732825     2.0634417551    -0.1043543638
Bq        -0.0135172155     2.1133813628    -0.1067851662
Bq        -0.0131611485     2.1633209705    -0.1092159686
Bq        -0.0128050816     2.2132605782    -0.1116467710
Bq        -0.0124490146     2.2632001859    -0.1140775734
Bq        -0.0120929476     2.3131397936    -0.1165083758
Bq        -0.0117368806     2.3630794012    -0.1189391781
Bq        -0.0113808137     2.4130190089    -0.1213699805
Bq        -0.0110247467     2.4629586166    -0.1238007829
Bq        -0.0106686797     2.5128982243    -0.1262315853
Bq        -0.0103126128     2.5628378320    -0.1286623877
Bq        -0.0099565458     2.6127774397    -0.1310931901
Bq        -0.0096004788     2.6627170474    -0.1335239924
Bq        -0.0092444118     2.7126566551    -0.1359547948
Bq        -0.0088883449     2.7625962627    -0.1383855972

1
2
3
4
5
6
7
8
9
10
11
12
13
14
15
16
17
18
19
20
21
22
23
24
25
26
27
28
29
30
31
32
33
34
35
36
37
38
39
40
41
42
43
44
45
46
47
48
49
50
51
52
53
54
55
56
57
58
59
60
61
62
63
64
65
66
67
68
69
70
71
72
73
74
75
76
77
78
79
80
81
82
83
84
85
86
87
88
89
90
91
92
93
94
95
96
97
98
99
100
101
102
103
104
105
106
107
108
109
110
111
112
113
114
115
116
117
118
119
120
121
122
123
124
125
126
127
128
129
130
131
132
133
134
135
136
137
138
139
140
141
142
143
144
145
146
147
148
149
150
151
152
153
154
155
156
157
158
159
160
161
162
163
164
165
166
167
168
169
170
171
172
173
174
175
176
177
178
179
180
181
182
183
184
185
186
187
188
189
190
191
192
193
194
195
196
197
198
199
200
201
202
203
204
205
206
207
208
209
210
211
212
213
214
215
216
217
218
219
220
221
222
223
224
225
226
227
228
229
230
231
232
233
234
235
236

