%nproc=8
%mem=1000MB
# rb3lyp/6-311+g** NMR geom=connectivity

Title

0 1
C    -4.0500558   -0.5771862    0.8136712
H    -5.0263804   -1.0082727    1.0024760
C    -3.9381552    0.6617804    0.2400876
H    -4.8252424    1.2338890   -0.0111295
C    -2.6768410    1.2433246    0.0057578
C    -1.4974121    0.5051527    0.2848253
C    -1.6508332   -0.7338728    0.9404026
H    -0.7713646   -1.2730967    1.2633753
C    -2.8898548   -1.2624035    1.1994307
H    -2.9683706   -2.2124563    1.7152676
C    -2.5773185    2.5963696   -0.4192930
H    -3.4870728    3.1412239   -0.6474055
C    -1.3741895    3.2147896   -0.4364030
H    -1.2997315    4.2742019   -0.6578144
C    -0.1719488    2.4994090   -0.1734588
C    -0.2043917    1.1018437    0.0192689
C     1.0513491    3.2042560   -0.0676222
H     1.0427344    4.2819499   -0.1896997
C     2.1942091    2.5487446    0.2579577
H     3.1168527    3.0912848    0.4334727
C     2.2216473    1.1336562    0.2934990
C     1.0486931    0.3945528    0.0302412
C     3.4483363    0.4614633    0.5573939
H     4.3095794    1.0606054    0.8334846
C     3.5427346   -0.8855926    0.4749463
H     4.4731467   -1.3939704    0.7038822
C     2.4490052   -1.6474447   -0.0196319
C     1.2150704   -1.0057258   -0.3013573
C     0.2531113   -1.7434440   -1.0216591
H    -0.6541356   -1.2535051   -1.3462847
C     0.4494193   -3.0628597   -1.3413779
H    -0.3083162   -3.5944309   -1.9054060
C     1.6251726   -3.7207967   -0.9552541
H     1.7670048   -4.7687404   -1.1927019
C     2.6109872   -3.0144177   -0.3183050
H     3.5525612   -3.4902813   -0.0646367
Bq        -1.1873161571     4.0110864550    -0.3730771638
Bq        -1.1869600901     4.0610260627    -0.3755079661
Bq        -1.1866040231     4.1109656703    -0.3779387685
Bq        -1.1862479561     4.1609052780    -0.3803695709
Bq        -1.1858918892     4.2108448857    -0.3828003733
Bq        -1.1855358222     4.2607844934    -0.3852311757
Bq        -1.1851797552     4.3107241011    -0.3876619781
Bq        -1.1713143904    -0.6832366678    -0.1373350103
Bq        -1.1709583234    -0.6332970601    -0.1397658127
Bq        -1.1706022564    -0.5833574524    -0.1421966150
Bq        -1.1702461895    -0.5334178447    -0.1446274174
Bq        -1.1698901225    -0.4834782370    -0.1470582198
Bq        -1.1695340555    -0.4335386293    -0.1494890222
Bq        -1.1691779886    -0.3835990216    -0.1519198246
Bq        -1.1688219216    -0.3336594139    -0.1543506270
Bq        -1.1684658546    -0.2837198063    -0.1567814293
Bq        -1.1681097876    -0.2337801986    -0.1592122317
Bq        -1.1677537207    -0.1838405909    -0.1616430341
Bq        -1.1673976537    -0.1339009832    -0.1640738365
Bq        -1.1670415867    -0.0839613755    -0.1665046389
Bq        -1.1666855198    -0.0340217678    -0.1689354413
Bq        -1.1663294528     0.0159178399    -0.1713662436
Bq        -1.1659733858     0.0658574476    -0.1737970460
Bq        -1.1656173188     0.1157970553    -0.1762278484
Bq        -1.1652612519     0.1657366629    -0.1786586508
Bq        -1.1649051849     0.2156762706    -0.1810894532
Bq        -1.1645491179     0.2656158783    -0.1835202556
Bq        -1.1641930510     0.3155554860    -0.1859510579
Bq        -1.1638369840     0.3654950937    -0.1883818603
Bq        -1.1634809170     0.4154347014    -0.1908126627
Bq        -1.1631248501     0.4653743091    -0.1932434651
Bq        -1.1627687831     0.5153139168    -0.1956742675
Bq        -1.1624127161     0.5652535245    -0.1981050699
Bq        -1.1620566491     0.6151931321    -0.2005358722
Bq        -1.1617005822     0.6651327398    -0.2029666746
Bq        -1.1613445152     0.7150723475    -0.2053974770
Bq        -1.1609884482     0.7650119552    -0.2078282794
Bq        -1.1606323813     0.8149515629    -0.2102590818
Bq        -1.1602763143     0.8648911706    -0.2126898842
Bq        -1.1599202473     0.9148307783    -0.2151206865
Bq        -1.1595641803     0.9647703860    -0.2175514889
Bq        -1.1592081134     1.0147099936    -0.2199822913
Bq        -1.1588520464     1.0646496013    -0.2224130937
Bq        -1.1584959794     1.1145892090    -0.2248438961
Bq        -1.1581399125     1.1645288167    -0.2272746985
Bq        -1.1577838455     1.2144684244    -0.2297055008
Bq        -1.1574277785     1.2644080321    -0.2321363032
Bq        -1.1570717115     1.3143476398    -0.2345671056
Bq        -1.1567156446     1.3642872475    -0.2369979080
Bq        -1.1563595776     1.4142268552    -0.2394287104
Bq        -1.1560035106     1.4641664628    -0.2418595128
Bq        -1.1556474437     1.5141060705    -0.2442903151
Bq        -1.1552913767     1.5640456782    -0.2467211175
Bq        -1.1549353097     1.6139852859    -0.2491519199
Bq        -1.1545792428     1.6639248936    -0.2515827223
Bq        -1.1542231758     1.7138645013    -0.2540135247
Bq        -1.1538671088     1.7638041090    -0.2564443271
Bq        -1.1535110418     1.8137437167    -0.2588751294
Bq        -1.1531549749     1.8636833244    -0.2613059318
Bq        -1.1527989079     1.9136229320    -0.2637367342
Bq        -1.1524428409     1.9635625397    -0.2661675366
Bq        -1.1520867740     2.0135021474    -0.2685983390
Bq        -1.1517307070     2.0634417551    -0.2710291414
Bq        -1.1513746400     2.1133813628    -0.2734599437
Bq        -1.1510185730     2.1633209705    -0.2758907461
Bq        -1.1506625061     2.2132605782    -0.2783215485
Bq        -1.1503064391     2.2632001859    -0.2807523509
Bq        -1.1499503721     2.3131397936    -0.2831831533
Bq        -1.1495943052     2.3630794012    -0.2856139557
Bq        -1.1492382382     2.4130190089    -0.2880447580
Bq        -1.1488821712     2.4629586166    -0.2904755604
Bq        -1.1485261042     2.5128982243    -0.2929063628
Bq        -1.1481700373     2.5628378320    -0.2953371652
Bq        -1.1478139703     2.6127774397    -0.2977679676
Bq        -1.1474579033     2.6627170474    -0.3001987700
Bq        -1.1471018364     2.7126566551    -0.3026295723
Bq        -1.1467457694     2.7625962627    -0.3050603747
Bq        -1.1463897024     2.8125358704    -0.3074911771
Bq        -1.1460336355     2.8624754781    -0.3099219795
Bq        -1.1456775685     2.9124150858    -0.3123527819
Bq        -1.1453215015     2.9623546935    -0.3147835843
Bq        -1.1449654345     3.0122943012    -0.3172143866
Bq        -1.1446093676     3.0622339089    -0.3196451890
Bq        -1.1442533006     3.1121735166    -0.3220759914
Bq        -1.1438972336     3.1621131243    -0.3245067938
Bq        -1.1435411667     3.2120527319    -0.3269375962
Bq        -1.1431850997     3.2619923396    -0.3293683986
Bq        -1.1428290327     3.3119319473    -0.3317992009
Bq        -1.1424729657     3.3618715550    -0.3342300033
Bq        -1.1421168988     3.4118111627    -0.3366608057
Bq        -1.1417608318     3.4617507704    -0.3390916081
Bq        -1.1414047648     3.5116903781    -0.3415224105
Bq        -1.1410486979     3.5616299858    -0.3439532129
Bq        -1.1406926309     3.6115695935    -0.3463840152
Bq        -1.1403365639     3.6615092011    -0.3488148176
Bq        -1.1399804969     3.7114488088    -0.3512456200
Bq        -1.1396244300     3.7613884165    -0.3536764224
Bq        -1.1392683630     3.8113280242    -0.3561072248
Bq        -1.1389122960     3.8612676319    -0.3585380272
Bq        -1.1385562291     3.9112072396    -0.3609688295
Bq        -1.1382001621     3.9611468473    -0.3633996319
Bq        -1.1378440951     4.0110864550    -0.3658304343
Bq        -1.1374880282     4.0610260627    -0.3682612367
Bq        -1.1371319612     4.1109656703    -0.3706920391
Bq        -1.1367758942     4.1609052780    -0.3731228415
Bq        -1.1364198272     4.2108448857    -0.3755536438
Bq        -1.1360637603     4.2607844934    -0.3779844462
Bq        -1.1357076933     4.3107241011    -0.3804152486
Bq        -1.1218423284    -0.6832366678    -0.1300882808
Bq        -1.1214862615    -0.6332970601    -0.1325190832
Bq        -1.1211301945    -0.5833574524    -0.1349498856
Bq        -1.1207741275    -0.5334178447    -0.1373806880
Bq        -1.1204180606    -0.4834782370    -0.1398114904
Bq        -1.1200619936    -0.4335386293    -0.1422422927
Bq        -1.1197059266    -0.3835990216    -0.1446730951
Bq        -1.1193498597    -0.3336594139    -0.1471038975
Bq        -1.1189937927    -0.2837198063    -0.1495346999
Bq        -1.1186377257    -0.2337801986    -0.1519655023
Bq        -1.1182816587    -0.1838405909    -0.1543963047
Bq        -1.1179255918    -0.1339009832    -0.1568271070
Bq        -1.1175695248    -0.0839613755    -0.1592579094
Bq        -1.1172134578    -0.0340217678    -0.1616887118
Bq        -1.1168573909     0.0159178399    -0.1641195142
Bq        -1.1165013239     0.0658574476    -0.1665503166
Bq        -1.1161452569     0.1157970553    -0.1689811190
Bq        -1.1157891899     0.1657366629    -0.1714119213
Bq        -1.1154331230     0.2156762706    -0.1738427237
Bq        -1.1150770560     0.2656158783    -0.1762735261
Bq        -1.1147209890     0.3155554860    -0.1787043285
Bq        -1.1143649221     0.3654950937    -0.1811351309
Bq        -1.1140088551     0.4154347014    -0.1835659333
Bq        -1.1136527881     0.4653743091    -0.1859967356
Bq        -1.1132967211     0.5153139168    -0.1884275380
Bq        -1.1129406542     0.5652535245    -0.1908583404
Bq        -1.1125845872     0.6151931321    -0.1932891428
Bq        -1.1122285202     0.6651327398    -0.1957199452
Bq        -1.1118724533     0.7150723475    -0.1981507476
Bq        -1.1115163863     0.7650119552    -0.2005815499
Bq        -1.1111603193     0.8149515629    -0.2030123523
Bq        -1.1108042524     0.8648911706    -0.2054431547
Bq        -1.1104481854     0.9148307783    -0.2078739571
Bq        -1.1100921184     0.9647703860    -0.2103047595
Bq        -1.1097360514     1.0147099936    -0.2127355619
Bq        -1.1093799845     1.0646496013    -0.2151663642
Bq        -1.1090239175     1.1145892090    -0.2175971666
Bq        -1.1086678505     1.1645288167    -0.2200279690
Bq        -1.1083117836     1.2144684244    -0.2224587714
Bq        -1.1079557166     1.2644080321    -0.2248895738
Bq        -1.1075996496     1.3143476398    -0.2273203762
Bq        -1.1072435826     1.3642872475    -0.2297511785
Bq        -1.1068875157     1.4142268552    -0.2321819809
Bq        -1.1065314487     1.4641664628    -0.2346127833
Bq        -1.1061753817     1.5141060705    -0.2370435857
Bq        -1.1058193148     1.5640456782    -0.2394743881
Bq        -1.1054632478     1.6139852859    -0.2419051905
Bq        -1.1051071808     1.6639248936    -0.2443359928
Bq        -1.1047511138     1.7138645013    -0.2467667952
Bq        -1.1043950469     1.7638041090    -0.2491975976
Bq        -1.1040389799     1.8137437167    -0.2516284000
Bq        -1.1036829129     1.8636833244    -0.2540592024
Bq        -1.1033268460     1.9136229320    -0.2564900048
Bq        -1.1029707790     1.9635625397    -0.2589208071
Bq        -1.1026147120     2.0135021474    -0.2613516095
Bq        -1.1022586451     2.0634417551    -0.2637824119
Bq        -1.1019025781     2.1133813628    -0.2662132143
Bq        -1.1015465111     2.1633209705    -0.2686440167
Bq        -1.1011904441     2.2132605782    -0.2710748190
Bq        -1.1008343772     2.2632001859    -0.2735056214
Bq        -1.1004783102     2.3131397936    -0.2759364238
Bq        -1.1001222432     2.3630794012    -0.2783672262
Bq        -1.0997661763     2.4130190089    -0.2807980286
Bq        -1.0994101093     2.4629586166    -0.2832288310
Bq        -1.0990540423     2.5128982243    -0.2856596333
Bq        -1.0986979753     2.5628378320    -0.2880904357
Bq        -1.0983419084     2.6127774397    -0.2905212381
Bq        -1.0979858414     2.6627170474    -0.2929520405
Bq        -1.0976297744     2.7126566551    -0.2953828429
Bq        -1.0972737075     2.7625962627    -0.2978136453
Bq        -1.0969176405     2.8125358704    -0.3002444476
Bq        -1.0965615735     2.8624754781    -0.3026752500
Bq        -1.0962055065     2.9124150858    -0.3051060524
Bq        -1.0958494396     2.9623546935    -0.3075368548
Bq        -1.0954933726     3.0122943012    -0.3099676572
Bq        -1.0951373056     3.0622339089    -0.3123984596
Bq        -1.0947812387     3.1121735166    -0.3148292619
Bq        -1.0944251717     3.1621131243    -0.3172600643
Bq        -1.0940691047     3.2120527319    -0.3196908667
Bq        -1.0937130378     3.2619923396    -0.3221216691
Bq        -1.0933569708     3.3119319473    -0.3245524715
Bq        -1.0930009038     3.3618715550    -0.3269832739
Bq        -1.0926448368     3.4118111627    -0.3294140762
Bq        -1.0922887699     3.4617507704    -0.3318448786
Bq        -1.0919327029     3.5116903781    -0.3342756810
Bq        -1.0915766359     3.5616299858    -0.3367064834
Bq        -1.0912205690     3.6115695935    -0.3391372858
Bq        -1.0908645020     3.6615092011    -0.3415680882
Bq        -1.0905084350     3.7114488088    -0.3439988905
Bq        -1.0901523680     3.7613884165    -0.3464296929
Bq        -1.0897963011     3.8113280242    -0.3488604953
Bq        -1.0894402341     3.8612676319    -0.3512912977

1
2
3
4
5
6
7
8
9
10
11
12
13
14
15
16
17
18
19
20
21
22
23
24
25
26
27
28
29
30
31
32
33
34
35
36
37
38
39
40
41
42
43
44
45
46
47
48
49
50
51
52
53
54
55
56
57
58
59
60
61
62
63
64
65
66
67
68
69
70
71
72
73
74
75
76
77
78
79
80
81
82
83
84
85
86
87
88
89
90
91
92
93
94
95
96
97
98
99
100
101
102
103
104
105
106
107
108
109
110
111
112
113
114
115
116
117
118
119
120
121
122
123
124
125
126
127
128
129
130
131
132
133
134
135
136
137
138
139
140
141
142
143
144
145
146
147
148
149
150
151
152
153
154
155
156
157
158
159
160
161
162
163
164
165
166
167
168
169
170
171
172
173
174
175
176
177
178
179
180
181
182
183
184
185
186
187
188
189
190
191
192
193
194
195
196
197
198
199
200
201
202
203
204
205
206
207
208
209
210
211
212
213
214
215
216
217
218
219
220
221
222
223
224
225
226
227
228
229
230
231
232
233
234
235
236

