%nproc=8
%mem=1000MB
# rb3lyp/6-311+g** NMR geom=connectivity

Title

0 1
C    -4.0500558   -0.5771862    0.8136712
H    -5.0263804   -1.0082727    1.0024760
C    -3.9381552    0.6617804    0.2400876
H    -4.8252424    1.2338890   -0.0111295
C    -2.6768410    1.2433246    0.0057578
C    -1.4974121    0.5051527    0.2848253
C    -1.6508332   -0.7338728    0.9404026
H    -0.7713646   -1.2730967    1.2633753
C    -2.8898548   -1.2624035    1.1994307
H    -2.9683706   -2.2124563    1.7152676
C    -2.5773185    2.5963696   -0.4192930
H    -3.4870728    3.1412239   -0.6474055
C    -1.3741895    3.2147896   -0.4364030
H    -1.2997315    4.2742019   -0.6578144
C    -0.1719488    2.4994090   -0.1734588
C    -0.2043917    1.1018437    0.0192689
C     1.0513491    3.2042560   -0.0676222
H     1.0427344    4.2819499   -0.1896997
C     2.1942091    2.5487446    0.2579577
H     3.1168527    3.0912848    0.4334727
C     2.2216473    1.1336562    0.2934990
C     1.0486931    0.3945528    0.0302412
C     3.4483363    0.4614633    0.5573939
H     4.3095794    1.0606054    0.8334846
C     3.5427346   -0.8855926    0.4749463
H     4.4731467   -1.3939704    0.7038822
C     2.4490052   -1.6474447   -0.0196319
C     1.2150704   -1.0057258   -0.3013573
C     0.2531113   -1.7434440   -1.0216591
H    -0.6541356   -1.2535051   -1.3462847
C     0.4494193   -3.0628597   -1.3413779
H    -0.3083162   -3.5944309   -1.9054060
C     1.6251726   -3.7207967   -0.9552541
H     1.7670048   -4.7687404   -1.1927019
C     2.6109872   -3.0144177   -0.3183050
H     3.5525612   -3.4902813   -0.0646367
Bq        -3.4459472014     3.7989448388    -0.6917312978
Bq        -3.4454607243     3.8474147548    -0.7039963125
Bq        -3.4449742472     3.8958846707    -0.7162613272
Bq        -3.4444877701     3.9443545867    -0.7285263419
Bq        -3.4440012930     3.9928245027    -0.7407913566
Bq        -3.4435148159     4.0412944186    -0.7530563713
Bq        -3.4430283387     4.0897643346    -0.7653213860
Bq        -3.4425418616     4.1382342506    -0.7775864008
Bq        -3.4420553845     4.1867041665    -0.7898514155
Bq        -3.4415689074     4.2351740825    -0.8021164302
Bq        -3.4410824303     4.2836439985    -0.8143814449
Bq        -3.4397694256    -0.5633475985     0.4141016584
Bq        -3.4392829485    -0.5148776825     0.4018366437
Bq        -3.4387964714    -0.4664077665     0.3895716290
Bq        -3.4383099943    -0.4179378506     0.3773066143
Bq        -3.4378235172    -0.3694679346     0.3650415995
Bq        -3.4373370400    -0.3209980186     0.3527765848
Bq        -3.4368505629    -0.2725281027     0.3405115701
Bq        -3.4363640858    -0.2240581867     0.3282465554
Bq        -3.4358776087    -0.1755882707     0.3159815407
Bq        -3.4353911316    -0.1271183548     0.3037165260
Bq        -3.4349046545    -0.0786484388     0.2914515113
Bq        -3.4344181774    -0.0301785228     0.2791864965
Bq        -3.4339317003     0.0182913932     0.2669214818
Bq        -3.4334452231     0.0667613091     0.2546564671
Bq        -3.4329587460     0.1152312251     0.2423914524
Bq        -3.4324722689     0.1637011411     0.2301264377
Bq        -3.4319857918     0.2121710570     0.2178614230
Bq        -3.4314993147     0.2606409730     0.2055964083
Bq        -3.4310128376     0.3091108890     0.1933313936
Bq        -3.4305263605     0.3575808049     0.1810663788
Bq        -3.4300398834     0.4060507209     0.1688013641
Bq        -3.4295534062     0.4545206369     0.1565363494
Bq        -3.4290669291     0.5029905529     0.1442713347
Bq        -3.4285804520     0.5514604688     0.1320063200
Bq        -3.4280939749     0.5999303848     0.1197413053
Bq        -3.4276074978     0.6484003008     0.1074762906
Bq        -3.4271210207     0.6968702167     0.0952112758
Bq        -3.4266345436     0.7453401327     0.0829462611
Bq        -3.4261480665     0.7938100487     0.0706812464
Bq        -3.4256615893     0.8422799646     0.0584162317
Bq        -3.4251751122     0.8907498806     0.0461512170
Bq        -3.4246886351     0.9392197966     0.0338862023
Bq        -3.4242021580     0.9876897125     0.0216211876
Bq        -3.4237156809     1.0361596285     0.0093561728
Bq        -3.4232292038     1.0846295445    -0.0029088419
Bq        -3.4227427267     1.1330994605    -0.0151738566
Bq        -3.4222562496     1.1815693764    -0.0274388713
Bq        -3.4217697725     1.2300392924    -0.0397038860
Bq        -3.4212832953     1.2785092084    -0.0519689007
Bq        -3.4207968182     1.3269791243    -0.0642339154
Bq        -3.4203103411     1.3754490403    -0.0764989301
Bq        -3.4198238640     1.4239189563    -0.0887639449
Bq        -3.4193373869     1.4723888722    -0.1010289596
Bq        -3.4188509098     1.5208587882    -0.1132939743
Bq        -3.4183644327     1.5693287042    -0.1255589890
Bq        -3.4178779556     1.6177986202    -0.1378240037
Bq        -3.4173914784     1.6662685361    -0.1500890184
Bq        -3.4169050013     1.7147384521    -0.1623540331
Bq        -3.4164185242     1.7632083681    -0.1746190479
Bq        -3.4159320471     1.8116782840    -0.1868840626
Bq        -3.4154455700     1.8601482000    -0.1991490773
Bq        -3.4149590929     1.9086181160    -0.2114140920
Bq        -3.4144726158     1.9570880319    -0.2236791067
Bq        -3.4139861387     2.0055579479    -0.2359441214
Bq        -3.4134996615     2.0540278639    -0.2482091361
Bq        -3.4130131844     2.1024977798    -0.2604741508
Bq        -3.4125267073     2.1509676958    -0.2727391656
Bq        -3.4120402302     2.1994376118    -0.2850041803
Bq        -3.4115537531     2.2479075278    -0.2972691950
Bq        -3.4110672760     2.2963774437    -0.3095342097
Bq        -3.4105807989     2.3448473597    -0.3217992244
Bq        -3.4100943218     2.3933172757    -0.3340642391
Bq        -3.4096078446     2.4417871916    -0.3463292538
Bq        -3.4091213675     2.4902571076    -0.3585942686
Bq        -3.4086348904     2.5387270236    -0.3708592833
Bq        -3.4081484133     2.5871969395    -0.3831242980
Bq        -3.4076619362     2.6356668555    -0.3953893127
Bq        -3.4071754591     2.6841367715    -0.4076543274
Bq        -3.4066889820     2.7326066875    -0.4199193421
Bq        -3.4062025049     2.7810766034    -0.4321843568
Bq        -3.4057160277     2.8295465194    -0.4444493716
Bq        -3.4052295506     2.8780164354    -0.4567143863
Bq        -3.4047430735     2.9264863513    -0.4689794010
Bq        -3.4042565964     2.9749562673    -0.4812444157
Bq        -3.4037701193     3.0234261833    -0.4935094304
Bq        -3.4032836422     3.0718960992    -0.5057744451
Bq        -3.4027971651     3.1203660152    -0.5180394598
Bq        -3.4023106880     3.1688359312    -0.5303044745
Bq        -3.4018242108     3.2173058471    -0.5425694893
Bq        -3.4013377337     3.2657757631    -0.5548345040
Bq        -3.4008512566     3.3142456791    -0.5670995187
Bq        -3.4003647795     3.3627155951    -0.5793645334
Bq        -3.3998783024     3.4111855110    -0.5916295481
Bq        -3.3993918253     3.4596554270    -0.6038945628
Bq        -3.3989053482     3.5081253430    -0.6161595775
Bq        -3.3984188711     3.5565952589    -0.6284245923
Bq        -3.3979323940     3.6050651749    -0.6406896070
Bq        -3.3974459168     3.6535350909    -0.6529546217
Bq        -3.3969594397     3.7020050068    -0.6652196364
Bq        -3.3964729626     3.7504749228    -0.6774846511
Bq        -3.3959864855     3.7989448388    -0.6897496658
Bq        -3.3955000084     3.8474147548    -0.7020146805
Bq        -3.3950135313     3.8958846707    -0.7142796953
Bq        -3.3945270542     3.9443545867    -0.7265447100
Bq        -3.3940405771     3.9928245027    -0.7388097247
Bq        -3.3935540999     4.0412944186    -0.7510747394
Bq        -3.3930676228     4.0897643346    -0.7633397541
Bq        -3.3925811457     4.1382342506    -0.7756047688
Bq        -3.3920946686     4.1867041665    -0.7878697835
Bq        -3.3916081915     4.2351740825    -0.8001347982
Bq        -3.3911217144     4.2836439985    -0.8123998130
Bq        -3.3898087097    -0.5633475985     0.4160832903
Bq        -3.3893222326    -0.5148776825     0.4038182756
Bq        -3.3888357555    -0.4664077665     0.3915532609
Bq        -3.3883492783    -0.4179378506     0.3792882462
Bq        -3.3878628012    -0.3694679346     0.3670232315
Bq        -3.3873763241    -0.3209980186     0.3547582168
Bq        -3.3868898470    -0.2725281027     0.3424932020
Bq        -3.3864033699    -0.2240581867     0.3302281873
Bq        -3.3859168928    -0.1755882707     0.3179631726
Bq        -3.3854304157    -0.1271183548     0.3056981579
Bq        -3.3849439386    -0.0786484388     0.2934331432
Bq        -3.3844574615    -0.0301785228     0.2811681285
Bq        -3.3839709843     0.0182913932     0.2689031138
Bq        -3.3834845072     0.0667613091     0.2566380991
Bq        -3.3829980301     0.1152312251     0.2443730843
Bq        -3.3825115530     0.1637011411     0.2321080696
Bq        -3.3820250759     0.2121710570     0.2198430549
Bq        -3.3815385988     0.2606409730     0.2075780402
Bq        -3.3810521217     0.3091108890     0.1953130255
Bq        -3.3805656446     0.3575808049     0.1830480108
Bq        -3.3800791674     0.4060507209     0.1707829961
Bq        -3.3795926903     0.4545206369     0.1585179813
Bq        -3.3791062132     0.5029905529     0.1462529666
Bq        -3.3786197361     0.5514604688     0.1339879519
Bq        -3.3781332590     0.5999303848     0.1217229372
Bq        -3.3776467819     0.6484003008     0.1094579225
Bq        -3.3771603048     0.6968702167     0.0971929078
Bq        -3.3766738277     0.7453401327     0.0849278931
Bq        -3.3761873505     0.7938100487     0.0726628783
Bq        -3.3757008734     0.8422799646     0.0603978636
Bq        -3.3752143963     0.8907498806     0.0481328489
Bq        -3.3747279192     0.9392197966     0.0358678342
Bq        -3.3742414421     0.9876897125     0.0236028195
Bq        -3.3737549650     1.0361596285     0.0113378048
Bq        -3.3732684879     1.0846295445    -0.0009272099
Bq        -3.3727820108     1.1330994605    -0.0131922246
Bq        -3.3722955336     1.1815693764    -0.0254572394
Bq        -3.3718090565     1.2300392924    -0.0377222541
Bq        -3.3713225794     1.2785092084    -0.0499872688
Bq        -3.3708361023     1.3269791243    -0.0622522835
Bq        -3.3703496252     1.3754490403    -0.0745172982
Bq        -3.3698631481     1.4239189563    -0.0867823129
Bq        -3.3693766710     1.4723888722    -0.0990473276
Bq        -3.3688901939     1.5208587882    -0.1113123424
Bq        -3.3684037167     1.5693287042    -0.1235773571
Bq        -3.3679172396     1.6177986202    -0.1358423718
Bq        -3.3674307625     1.6662685361    -0.1481073865
Bq        -3.3669442854     1.7147384521    -0.1603724012
Bq        -3.3664578083     1.7632083681    -0.1726374159
Bq        -3.3659713312     1.8116782840    -0.1849024306
Bq        -3.3654848541     1.8601482000    -0.1971674453
Bq        -3.3649983770     1.9086181160    -0.2094324601
Bq        -3.3645118999     1.9570880319    -0.2216974748
Bq        -3.3640254227     2.0055579479    -0.2339624895
Bq        -3.3635389456     2.0540278639    -0.2462275042
Bq        -3.3630524685     2.1024977798    -0.2584925189
Bq        -3.3625659914     2.1509676958    -0.2707575336
Bq        -3.3620795143     2.1994376118    -0.2830225483
Bq        -3.3615930372     2.2479075278    -0.2952875631
Bq        -3.3611065601     2.2963774437    -0.3075525778
Bq        -3.3606200830     2.3448473597    -0.3198175925
Bq        -3.3601336058     2.3933172757    -0.3320826072
Bq        -3.3596471287     2.4417871916    -0.3443476219
Bq        -3.3591606516     2.4902571076    -0.3566126366
Bq        -3.3586741745     2.5387270236    -0.3688776513
Bq        -3.3581876974     2.5871969395    -0.3811426661
Bq        -3.3577012203     2.6356668555    -0.3934076808
Bq        -3.3572147432     2.6841367715    -0.4056726955
Bq        -3.3567282661     2.7326066875    -0.4179377102
Bq        -3.3562417889     2.7810766034    -0.4302027249
Bq        -3.3557553118     2.8295465194    -0.4424677396
Bq        -3.3552688347     2.8780164354    -0.4547327543
Bq        -3.3547823576     2.9264863513    -0.4669977690
Bq        -3.3542958805     2.9749562673    -0.4792627838
Bq        -3.3538094034     3.0234261833    -0.4915277985
Bq        -3.3533229263     3.0718960992    -0.5037928132
Bq        -3.3528364492     3.1203660152    -0.5160578279
Bq        -3.3523499720     3.1688359312    -0.5283228426
Bq        -3.3518634949     3.2173058471    -0.5405878573
Bq        -3.3513770178     3.2657757631    -0.5528528720
Bq        -3.3508905407     3.3142456791    -0.5651178868
Bq        -3.3504040636     3.3627155951    -0.5773829015
Bq        -3.3499175865     3.4111855110    -0.5896479162
Bq        -3.3494311094     3.4596554270    -0.6019129309
Bq        -3.3489446323     3.5081253430    -0.6141779456
Bq        -3.3484581551     3.5565952589    -0.6264429603
Bq        -3.3479716780     3.6050651749    -0.6387079750
Bq        -3.3474852009     3.6535350909    -0.6509729898

1
2
3
4
5
6
7
8
9
10
11
12
13
14
15
16
17
18
19
20
21
22
23
24
25
26
27
28
29
30
31
32
33
34
35
36
37
38
39
40
41
42
43
44
45
46
47
48
49
50
51
52
53
54
55
56
57
58
59
60
61
62
63
64
65
66
67
68
69
70
71
72
73
74
75
76
77
78
79
80
81
82
83
84
85
86
87
88
89
90
91
92
93
94
95
96
97
98
99
100
101
102
103
104
105
106
107
108
109
110
111
112
113
114
115
116
117
118
119
120
121
122
123
124
125
126
127
128
129
130
131
132
133
134
135
136
137
138
139
140
141
142
143
144
145
146
147
148
149
150
151
152
153
154
155
156
157
158
159
160
161
162
163
164
165
166
167
168
169
170
171
172
173
174
175
176
177
178
179
180
181
182
183
184
185
186
187
188
189
190
191
192
193
194
195
196
197
198
199
200
201
202
203
204
205
206
207
208
209
210
211
212
213
214
215
216
217
218
219
220
221
222
223
224
225
226
227
228
229
230
231
232
233
234
235
236

