%nproc=8
%mem=1000MB
# rb3lyp/6-311+g** NMR geom=connectivity

Title

0 1
C    -4.0500558   -0.5771862    0.8136712
H    -5.0263804   -1.0082727    1.0024760
C    -3.9381552    0.6617804    0.2400876
H    -4.8252424    1.2338890   -0.0111295
C    -2.6768410    1.2433246    0.0057578
C    -1.4974121    0.5051527    0.2848253
C    -1.6508332   -0.7338728    0.9404026
H    -0.7713646   -1.2730967    1.2633753
C    -2.8898548   -1.2624035    1.1994307
H    -2.9683706   -2.2124563    1.7152676
C    -2.5773185    2.5963696   -0.4192930
H    -3.4870728    3.1412239   -0.6474055
C    -1.3741895    3.2147896   -0.4364030
H    -1.2997315    4.2742019   -0.6578144
C    -0.1719488    2.4994090   -0.1734588
C    -0.2043917    1.1018437    0.0192689
C     1.0513491    3.2042560   -0.0676222
H     1.0427344    4.2819499   -0.1896997
C     2.1942091    2.5487446    0.2579577
H     3.1168527    3.0912848    0.4334727
C     2.2216473    1.1336562    0.2934990
C     1.0486931    0.3945528    0.0302412
C     3.4483363    0.4614633    0.5573939
H     4.3095794    1.0606054    0.8334846
C     3.5427346   -0.8855926    0.4749463
H     4.4731467   -1.3939704    0.7038822
C     2.4490052   -1.6474447   -0.0196319
C     1.2150704   -1.0057258   -0.3013573
C     0.2531113   -1.7434440   -1.0216591
H    -0.6541356   -1.2535051   -1.3462847
C     0.4494193   -3.0628597   -1.3413779
H    -0.3083162   -3.5944309   -1.9054060
C     1.6251726   -3.7207967   -0.9552541
H     1.7670048   -4.7687404   -1.1927019
C     2.6109872   -3.0144177   -0.3183050
H     3.5525612   -3.4902813   -0.0646367
Bq         0.5808596617     2.2132605782    -0.0246860175
Bq         0.5812157286     2.2632001859    -0.0271168199
Bq         0.5815717956     2.3131397936    -0.0295476223
Bq         0.5819278626     2.3630794012    -0.0319784247
Bq         0.5822839296     2.4130190089    -0.0344092270
Bq         0.5826399965     2.4629586166    -0.0368400294
Bq         0.5829960635     2.5128982243    -0.0392708318
Bq         0.5833521305     2.5628378320    -0.0417016342
Bq         0.5837081974     2.6127774397    -0.0441324366
Bq         0.5840642644     2.6627170474    -0.0465632390
Bq         0.5844203314     2.7126566551    -0.0489940413
Bq         0.5847763984     2.7625962627    -0.0514248437
Bq         0.5851324653     2.8125358704    -0.0538556461
Bq         0.5854885323     2.8624754781    -0.0562864485
Bq         0.5858445993     2.9124150858    -0.0587172509
Bq         0.5862006662     2.9623546935    -0.0611480533
Bq         0.5865567332     3.0122943012    -0.0635788556
Bq         0.5869128002     3.0622339089    -0.0660096580
Bq         0.5872688672     3.1121735166    -0.0684404604
Bq         0.5876249341     3.1621131243    -0.0708712628
Bq         0.5879810011     3.2120527319    -0.0733020652
Bq         0.5883370681     3.2619923396    -0.0757328676
Bq         0.5886931350     3.3119319473    -0.0781636699
Bq         0.5890492020     3.3618715550    -0.0805944723
Bq         0.5894052690     3.4118111627    -0.0830252747
Bq         0.5897613359     3.4617507704    -0.0854560771
Bq         0.5901174029     3.5116903781    -0.0878868795
Bq         0.5904734699     3.5616299858    -0.0903176819
Bq         0.5908295369     3.6115695935    -0.0927484842
Bq         0.5911856038     3.6615092011    -0.0951792866
Bq         0.5915416708     3.7114488088    -0.0976100890
Bq         0.5918977378     3.7613884165    -0.1000408914
Bq         0.5922538047     3.8113280242    -0.1024716938
Bq         0.5926098717     3.8612676319    -0.1049024962
Bq         0.5929659387     3.9112072396    -0.1073332985
Bq         0.5933220057     3.9611468473    -0.1097641009
Bq         0.5936780726     4.0110864550    -0.1121949033
Bq         0.5940341396     4.0610260627    -0.1146257057
Bq         0.5943902066     4.1109656703    -0.1170565081
Bq         0.5947462735     4.1609052780    -0.1194873105
Bq         0.5951023405     4.2108448857    -0.1219181128
Bq         0.5954584075     4.2607844934    -0.1243489152
Bq         0.5958144745     4.3107241011    -0.1267797176
Bq         0.6096798393    -0.6832366678     0.1235472502
Bq         0.6100359063    -0.6332970601     0.1211164478
Bq         0.6103919732    -0.5833574524     0.1186856454
Bq         0.6107480402    -0.5334178447     0.1162548430
Bq         0.6111041072    -0.4834782370     0.1138240406
Bq         0.6114601742    -0.4335386293     0.1113932383
Bq         0.6118162411    -0.3835990216     0.1089624359
Bq         0.6121723081    -0.3336594139     0.1065316335
Bq         0.6125283751    -0.2837198063     0.1041008311
Bq         0.6128844420    -0.2337801986     0.1016700287
Bq         0.6132405090    -0.1838405909     0.0992392263
Bq         0.6135965760    -0.1339009832     0.0968084240
Bq         0.6139526430    -0.0839613755     0.0943776216
Bq         0.6143087099    -0.0340217678     0.0919468192
Bq         0.6146647769     0.0159178399     0.0895160168
Bq         0.6150208439     0.0658574476     0.0870852144
Bq         0.6153769108     0.1157970553     0.0846544120
Bq         0.6157329778     0.1657366629     0.0822236097
Bq         0.6160890448     0.2156762706     0.0797928073
Bq         0.6164451118     0.2656158783     0.0773620049
Bq         0.6168011787     0.3155554860     0.0749312025
Bq         0.6171572457     0.3654950937     0.0725004001
Bq         0.6175133127     0.4154347014     0.0700695977
Bq         0.6178693796     0.4653743091     0.0676387954
Bq         0.6182254466     0.5153139168     0.0652079930
Bq         0.6185815136     0.5652535245     0.0627771906
Bq         0.6189375805     0.6151931321     0.0603463882
Bq         0.6192936475     0.6651327398     0.0579155858
Bq         0.6196497145     0.7150723475     0.0554847834
Bq         0.6200057815     0.7650119552     0.0530539811
Bq         0.6203618484     0.8149515629     0.0506231787
Bq         0.6207179154     0.8648911706     0.0481923763
Bq         0.6210739824     0.9148307783     0.0457615739
Bq         0.6214300493     0.9647703860     0.0433307715
Bq         0.6217861163     1.0147099936     0.0408999691
Bq         0.6221421833     1.0646496013     0.0384691668
Bq         0.6224982503     1.1145892090     0.0360383644
Bq         0.6228543172     1.1645288167     0.0336075620
Bq         0.6232103842     1.2144684244     0.0311767596
Bq         0.6235664512     1.2644080321     0.0287459572
Bq         0.6239225181     1.3143476398     0.0263151548
Bq         0.6242785851     1.3642872475     0.0238843525
Bq         0.6246346521     1.4142268552     0.0214535501
Bq         0.6249907191     1.4641664628     0.0190227477
Bq         0.6253467860     1.5141060705     0.0165919453
Bq         0.6257028530     1.5640456782     0.0141611429
Bq         0.6260589200     1.6139852859     0.0117303405
Bq         0.6264149869     1.6639248936     0.0092995382
Bq         0.6267710539     1.7138645013     0.0068687358
Bq         0.6271271209     1.7638041090     0.0044379334
Bq         0.6274831878     1.8137437167     0.0020071310
Bq         0.6278392548     1.8636833244    -0.0004236714
Bq         0.6281953218     1.9136229320    -0.0028544738
Bq         0.6285513888     1.9635625397    -0.0052852761
Bq         0.6289074557     2.0135021474    -0.0077160785
Bq         0.6292635227     2.0634417551    -0.0101468809
Bq         0.6296195897     2.1133813628    -0.0125776833
Bq         0.6299756566     2.1633209705    -0.0150084857
Bq         0.6303317236     2.2132605782    -0.0174392881
Bq         0.6306877906     2.2632001859    -0.0198700904
Bq         0.6310438576     2.3131397936    -0.0223008928
Bq         0.6313999245     2.3630794012    -0.0247316952
Bq         0.6317559915     2.4130190089    -0.0271624976
Bq         0.6321120585     2.4629586166    -0.0295933000
Bq         0.6324681254     2.5128982243    -0.0320241024
Bq         0.6328241924     2.5628378320    -0.0344549047
Bq         0.6331802594     2.6127774397    -0.0368857071
Bq         0.6335363264     2.6627170474    -0.0393165095
Bq         0.6338923933     2.7126566551    -0.0417473119
Bq         0.6342484603     2.7625962627    -0.0441781143
Bq         0.6346045273     2.8125358704    -0.0466089167
Bq         0.6349605942     2.8624754781    -0.0490397190
Bq         0.6353166612     2.9124150858    -0.0514705214
Bq         0.6356727282     2.9623546935    -0.0539013238
Bq         0.6360287951     3.0122943012    -0.0563321262
Bq         0.6363848621     3.0622339089    -0.0587629286
Bq         0.6367409291     3.1121735166    -0.0611937310
Bq         0.6370969961     3.1621131243    -0.0636245333
Bq         0.6374530630     3.2120527319    -0.0660553357
Bq         0.6378091300     3.2619923396    -0.0684861381
Bq         0.6381651970     3.3119319473    -0.0709169405
Bq         0.6385212639     3.3618715550    -0.0733477429
Bq         0.6388773309     3.4118111627    -0.0757785453
Bq         0.6392333979     3.4617507704    -0.0782093476
Bq         0.6395894649     3.5116903781    -0.0806401500
Bq         0.6399455318     3.5616299858    -0.0830709524
Bq         0.6403015988     3.6115695935    -0.0855017548
Bq         0.6406576658     3.6615092011    -0.0879325572
Bq         0.6410137327     3.7114488088    -0.0903633596
Bq         0.6413697997     3.7613884165    -0.0927941619
Bq         0.6417258667     3.8113280242    -0.0952249643
Bq         0.6420819337     3.8612676319    -0.0976557667
Bq         0.6424380006     3.9112072396    -0.1000865691
Bq         0.6427940676     3.9611468473    -0.1025173715
Bq         0.6431501346     4.0110864550    -0.1049481739
Bq         0.6435062015     4.0610260627    -0.1073789762
Bq         0.6438622685     4.1109656703    -0.1098097786
Bq         0.6442183355     4.1609052780    -0.1122405810
Bq         0.6445744024     4.2108448857    -0.1146713834
Bq         0.6449304694     4.2607844934    -0.1171021858
Bq         0.6452865364     4.3107241011    -0.1195329882
Bq         0.6591519012    -0.6832366678     0.1307939796
Bq         0.6595079682    -0.6332970601     0.1283631772
Bq         0.6598640352    -0.5833574524     0.1259323749
Bq         0.6602201022    -0.5334178447     0.1235015725
Bq         0.6605761691    -0.4834782370     0.1210707701
Bq         0.6609322361    -0.4335386293     0.1186399677
Bq         0.6612883031    -0.3835990216     0.1162091653
Bq         0.6616443700    -0.3336594139     0.1137783629
Bq         0.6620004370    -0.2837198063     0.1113475606
Bq         0.6623565040    -0.2337801986     0.1089167582
Bq         0.6627125709    -0.1838405909     0.1064859558
Bq         0.6630686379    -0.1339009832     0.1040551534
Bq         0.6634247049    -0.0839613755     0.1016243510
Bq         0.6637807719    -0.0340217678     0.0991935486
Bq         0.6641368388     0.0159178399     0.0967627463
Bq         0.6644929058     0.0658574476     0.0943319439
Bq         0.6648489728     0.1157970553     0.0919011415
Bq         0.6652050397     0.1657366629     0.0894703391
Bq         0.6655611067     0.2156762706     0.0870395367
Bq         0.6659171737     0.2656158783     0.0846087343
Bq         0.6662732407     0.3155554860     0.0821779320
Bq         0.6666293076     0.3654950937     0.0797471296
Bq         0.6669853746     0.4154347014     0.0773163272
Bq         0.6673414416     0.4653743091     0.0748855248
Bq         0.6676975085     0.5153139168     0.0724547224
Bq         0.6680535755     0.5652535245     0.0700239200
Bq         0.6684096425     0.6151931321     0.0675931177
Bq         0.6687657095     0.6651327398     0.0651623153
Bq         0.6691217764     0.7150723475     0.0627315129
Bq         0.6694778434     0.7650119552     0.0603007105
Bq         0.6698339104     0.8149515629     0.0578699081
Bq         0.6701899773     0.8648911706     0.0554391057
Bq         0.6705460443     0.9148307783     0.0530083034
Bq         0.6709021113     0.9647703860     0.0505775010
Bq         0.6712581782     1.0147099936     0.0481466986
Bq         0.6716142452     1.0646496013     0.0457158962
Bq         0.6719703122     1.1145892090     0.0432850938
Bq         0.6723263792     1.1645288167     0.0408542914
Bq         0.6726824461     1.2144684244     0.0384234891
Bq         0.6730385131     1.2644080321     0.0359926867
Bq         0.6733945801     1.3143476398     0.0335618843
Bq         0.6737506470     1.3642872475     0.0311310819
Bq         0.6741067140     1.4142268552     0.0287002795
Bq         0.6744627810     1.4641664628     0.0262694772
Bq         0.6748188480     1.5141060705     0.0238386748
Bq         0.6751749149     1.5640456782     0.0214078724
Bq         0.6755309819     1.6139852859     0.0189770700
Bq         0.6758870489     1.6639248936     0.0165462676
Bq         0.6762431158     1.7138645013     0.0141154652
Bq         0.6765991828     1.7638041090     0.0116846629
Bq         0.6769552498     1.8137437167     0.0092538605
Bq         0.6773113168     1.8636833244     0.0068230581
Bq         0.6776673837     1.9136229320     0.0043922557
Bq         0.6780234507     1.9635625397     0.0019614533
Bq         0.6783795177     2.0135021474    -0.0004693491
Bq         0.6787355846     2.0634417551    -0.0029001514

1
2
3
4
5
6
7
8
9
10
11
12
13
14
15
16
17
18
19
20
21
22
23
24
25
26
27
28
29
30
31
32
33
34
35
36
37
38
39
40
41
42
43
44
45
46
47
48
49
50
51
52
53
54
55
56
57
58
59
60
61
62
63
64
65
66
67
68
69
70
71
72
73
74
75
76
77
78
79
80
81
82
83
84
85
86
87
88
89
90
91
92
93
94
95
96
97
98
99
100
101
102
103
104
105
106
107
108
109
110
111
112
113
114
115
116
117
118
119
120
121
122
123
124
125
126
127
128
129
130
131
132
133
134
135
136
137
138
139
140
141
142
143
144
145
146
147
148
149
150
151
152
153
154
155
156
157
158
159
160
161
162
163
164
165
166
167
168
169
170
171
172
173
174
175
176
177
178
179
180
181
182
183
184
185
186
187
188
189
190
191
192
193
194
195
196
197
198
199
200
201
202
203
204
205
206
207
208
209
210
211
212
213
214
215
216
217
218
219
220
221
222
223
224
225
226
227
228
229
230
231
232
233
234
235
236

