%nproc=8
%mem=1000MB
# rb3lyp/6-311+g** NMR geom=connectivity

Title

0 1
C    -4.0500558   -0.5771862    0.8136712
H    -5.0263804   -1.0082727    1.0024760
C    -3.9381552    0.6617804    0.2400876
H    -4.8252424    1.2338890   -0.0111295
C    -2.6768410    1.2433246    0.0057578
C    -1.4974121    0.5051527    0.2848253
C    -1.6508332   -0.7338728    0.9404026
H    -0.7713646   -1.2730967    1.2633753
C    -2.8898548   -1.2624035    1.1994307
H    -2.9683706   -2.2124563    1.7152676
C    -2.5773185    2.5963696   -0.4192930
H    -3.4870728    3.1412239   -0.6474055
C    -1.3741895    3.2147896   -0.4364030
H    -1.2997315    4.2742019   -0.6578144
C    -0.1719488    2.4994090   -0.1734588
C    -0.2043917    1.1018437    0.0192689
C     1.0513491    3.2042560   -0.0676222
H     1.0427344    4.2819499   -0.1896997
C     2.1942091    2.5487446    0.2579577
H     3.1168527    3.0912848    0.4334727
C     2.2216473    1.1336562    0.2934990
C     1.0486931    0.3945528    0.0302412
C     3.4483363    0.4614633    0.5573939
H     4.3095794    1.0606054    0.8334846
C     3.5427346   -0.8855926    0.4749463
H     4.4731467   -1.3939704    0.7038822
C     2.4490052   -1.6474447   -0.0196319
C     1.2150704   -1.0057258   -0.3013573
C     0.2531113   -1.7434440   -1.0216591
H    -0.6541356   -1.2535051   -1.3462847
C     0.4494193   -3.0628597   -1.3413779
H    -0.3083162   -3.5944309   -1.9054060
C     1.6251726   -3.7207967   -0.9552541
H     1.7670048   -4.7687404   -1.1927019
C     2.6109872   -3.0144177   -0.3183050
H     3.5525612   -3.4902813   -0.0646367
Bq         3.9396535638    -4.7756060011    -0.2522708146
Bq         3.9341503271    -4.7274095098    -0.2401541893
Bq         3.9286470904    -4.6792130184    -0.2280375641
Bq         3.9231438538    -4.6310165271    -0.2159209389
Bq         3.9176406171    -4.5828200357    -0.2038043136
Bq         3.9121373804    -4.5346235444    -0.1916876884
Bq         3.9066341437    -4.4864270530    -0.1795710632
Bq         3.9011309070    -4.4382305616    -0.1674544380
Bq         3.8956276703    -4.3900340703    -0.1553378127
Bq         3.8901244336    -4.3418375789    -0.1432211875
Bq         3.8846211970    -4.2936410876    -0.1311045623
Bq         3.8791179603    -4.2454445962    -0.1189879370
Bq         3.8736147236    -4.1972481049    -0.1068713118
Bq         3.8681114869    -4.1490516135    -0.0947546866
Bq         3.8626082502    -4.1008551222    -0.0826380613
Bq         3.8571050135    -4.0526586308    -0.0705214361
Bq         3.8516017768    -4.0044621394    -0.0584048109
Bq         3.8460985402    -3.9562656481    -0.0462881857
Bq         3.8405953035    -3.9080691567    -0.0341715604
Bq         3.8350920668    -3.8598726654    -0.0220549352
Bq         3.8295888301    -3.8116761740    -0.0099383100
Bq         3.8240855934    -3.7634796827     0.0021783153
Bq         3.8185823567    -3.7152831913     0.0142949405
Bq         3.8130791200    -3.6670866999     0.0264115657
Bq         3.8075758834    -3.6188902086     0.0385281909
Bq         3.8020726467    -3.5706937172     0.0506448162
Bq         3.7965694100    -3.5224972259     0.0627614414
Bq         3.7910661733    -3.4743007345     0.0748780666
Bq         3.7855629366    -3.4261042432     0.0869946919
Bq         3.7800596999    -3.3779077518     0.0991113171
Bq         3.7745564632    -3.3297112605     0.1112279423
Bq         3.7690532265    -3.2815147691     0.1233445675
Bq         3.7635499899    -3.2333182777     0.1354611928
Bq         3.7580467532    -3.1851217864     0.1475778180
Bq         3.7525435165    -3.1369252950     0.1596944432
Bq         3.7470402798    -3.0887288037     0.1718110685
Bq         3.7415370431    -3.0405323123     0.1839276937
Bq         3.7360338064    -2.9923358210     0.1960443189
Bq         3.7305305697    -2.9441393296     0.2081609441
Bq         3.7250273331    -2.8959428383     0.2202775694
Bq         3.7195240964    -2.8477463469     0.2323941946
Bq         3.7140208597    -2.7995498555     0.2445108198
Bq         3.7085176230    -2.7513533642     0.2566274451
Bq         3.7030143863    -2.7031568728     0.2687440703
Bq         3.6975111496    -2.6549603815     0.2808606955
Bq         3.6920079129    -2.6067638901     0.2929773207
Bq         3.6865046763    -2.5585673988     0.3050939460
Bq         3.6810014396    -2.5103709074     0.3172105712
Bq         3.6754982029    -2.4621744160     0.3293271964
Bq         3.6699949662    -2.4139779247     0.3414438217
Bq         3.6644917295    -2.3657814333     0.3535604469
Bq         3.6589884928    -2.3175849420     0.3656770721
Bq         3.6534852561    -2.2693884506     0.3777936974
Bq         3.6479820195    -2.2211919593     0.3899103226
Bq         3.6424787828    -2.1729954679     0.4020269478
Bq         3.6369755461    -2.1247989766     0.4141435730
Bq         3.6314723094    -2.0766024852     0.4262601983
Bq         3.6259690727    -2.0284059938     0.4383768235
Bq         3.6204658360    -1.9802095025     0.4504934487
Bq         3.6149625993    -1.9320130111     0.4626100740
Bq         3.6094593627    -1.8838165198     0.4747266992
Bq         3.6039561260    -1.8356200284     0.4868433244
Bq         3.5984528893    -1.7874235371     0.4989599496
Bq         3.5929496526    -1.7392270457     0.5110765749
Bq         3.5874464159    -1.6910305543     0.5231932001
Bq         3.5819431792    -1.6428340630     0.5353098253
Bq         3.5764399425    -1.5946375716     0.5474264506
Bq         3.5709367059    -1.5464410803     0.5595430758
Bq         3.5654334692    -1.4982445889     0.5716597010
Bq         3.5599302325    -1.4500480976     0.5837763262
Bq         3.5544269958    -1.4018516062     0.5958929515
Bq         3.5489237591    -1.3536551149     0.6080095767
Bq         3.5434205224    -1.3054586235     0.6201262019
Bq         3.5379172857    -1.2572621321     0.6322428272
Bq         3.5324140490    -1.2090656408     0.6443594524
Bq         3.5269108124    -1.1608691494     0.6564760776
Bq         3.5214075757    -1.1126726581     0.6685927028
Bq         3.5159043390    -1.0644761667     0.6807093281
Bq         3.5104011023    -1.0162796754     0.6928259533
Bq         3.5048978656    -0.9680831840     0.7049425785
Bq         3.4993946289    -0.9198866927     0.7170592038
Bq         3.4938913922    -0.8716902013     0.7291758290
Bq         3.4883881556    -0.8234937099     0.7412924542
Bq         3.4828849189    -0.7752972186     0.7534090795
Bq         3.4773816822    -0.7271007272     0.7655257047
Bq         3.4718784455    -0.6789042359     0.7776423299
Bq         3.4663752088    -0.6307077445     0.7897589551
Bq         3.4608719721    -0.5825112532     0.8018755804
Bq         3.4553687354    -0.5343147618     0.8139922056
Bq         3.4498654988    -0.4861182704     0.8261088308
Bq         3.4443622621    -0.4379217791     0.8382254561
Bq         3.4388590254    -0.3897252877     0.8503420813
Bq         3.4333557887    -0.3415287964     0.8624587065
Bq         3.4278525520    -0.2933323050     0.8745753317
Bq         3.4223493153    -0.2451358137     0.8866919570
Bq         3.4168460786    -0.1969393223     0.8988085822
Bq         3.4113428420    -0.1487428310     0.9109252074
Bq         3.4058396053    -0.1005463396     0.9230418327
Bq         3.4003363686    -0.0523498482     0.9351584579
Bq         3.3948331319    -0.0041533569     0.9472750831
Bq         3.3893298952     0.0440431345     0.9593917083
Bq         3.9851780005    -4.7756060011    -0.2315941207
Bq         3.9796747638    -4.7274095098    -0.2194774955
Bq         3.9741715271    -4.6792130184    -0.2073608703
Bq         3.9686682904    -4.6310165271    -0.1952442451
Bq         3.9631650537    -4.5828200357    -0.1831276198
Bq         3.9576618170    -4.5346235444    -0.1710109946
Bq         3.9521585804    -4.4864270530    -0.1588943694
Bq         3.9466553437    -4.4382305616    -0.1467777441
Bq         3.9411521070    -4.3900340703    -0.1346611189
Bq         3.9356488703    -4.3418375789    -0.1225444937
Bq         3.9301456336    -4.2936410876    -0.1104278685
Bq         3.9246423969    -4.2454445962    -0.0983112432
Bq         3.9191391602    -4.1972481049    -0.0861946180
Bq         3.9136359236    -4.1490516135    -0.0740779928
Bq         3.9081326869    -4.1008551222    -0.0619613675
Bq         3.9026294502    -4.0526586308    -0.0498447423
Bq         3.8971262135    -4.0044621394    -0.0377281171
Bq         3.8916229768    -3.9562656481    -0.0256114918
Bq         3.8861197401    -3.9080691567    -0.0134948666
Bq         3.8806165034    -3.8598726654    -0.0013782414
Bq         3.8751132668    -3.8116761740     0.0107383838
Bq         3.8696100301    -3.7634796827     0.0228550091
Bq         3.8641067934    -3.7152831913     0.0349716343
Bq         3.8586035567    -3.6670866999     0.0470882595
Bq         3.8531003200    -3.6188902086     0.0592048848
Bq         3.8475970833    -3.5706937172     0.0713215100
Bq         3.8420938466    -3.5224972259     0.0834381352
Bq         3.8365906100    -3.4743007345     0.0955547604
Bq         3.8310873733    -3.4261042432     0.1076713857
Bq         3.8255841366    -3.3779077518     0.1197880109
Bq         3.8200808999    -3.3297112605     0.1319046361
Bq         3.8145776632    -3.2815147691     0.1440212614
Bq         3.8090744265    -3.2333182777     0.1561378866
Bq         3.8035711898    -3.1851217864     0.1682545118
Bq         3.7980679531    -3.1369252950     0.1803711370
Bq         3.7925647165    -3.0887288037     0.1924877623
Bq         3.7870614798    -3.0405323123     0.2046043875
Bq         3.7815582431    -2.9923358210     0.2167210127
Bq         3.7760550064    -2.9441393296     0.2288376380
Bq         3.7705517697    -2.8959428383     0.2409542632
Bq         3.7650485330    -2.8477463469     0.2530708884
Bq         3.7595452963    -2.7995498555     0.2651875136
Bq         3.7540420597    -2.7513533642     0.2773041389
Bq         3.7485388230    -2.7031568728     0.2894207641
Bq         3.7430355863    -2.6549603815     0.3015373893
Bq         3.7375323496    -2.6067638901     0.3136540146
Bq         3.7320291129    -2.5585673988     0.3257706398
Bq         3.7265258762    -2.5103709074     0.3378872650
Bq         3.7210226395    -2.4621744160     0.3500038903
Bq         3.7155194029    -2.4139779247     0.3621205155
Bq         3.7100161662    -2.3657814333     0.3742371407
Bq         3.7045129295    -2.3175849420     0.3863537659
Bq         3.6990096928    -2.2693884506     0.3984703912
Bq         3.6935064561    -2.2211919593     0.4105870164
Bq         3.6880032194    -2.1729954679     0.4227036416
Bq         3.6824999827    -2.1247989766     0.4348202669
Bq         3.6769967461    -2.0766024852     0.4469368921
Bq         3.6714935094    -2.0284059938     0.4590535173
Bq         3.6659902727    -1.9802095025     0.4711701425
Bq         3.6604870360    -1.9320130111     0.4832867678
Bq         3.6549837993    -1.8838165198     0.4954033930
Bq         3.6494805626    -1.8356200284     0.5075200182
Bq         3.6439773259    -1.7874235371     0.5196366435
Bq         3.6384740893    -1.7392270457     0.5317532687
Bq         3.6329708526    -1.6910305543     0.5438698939
Bq         3.6274676159    -1.6428340630     0.5559865191
Bq         3.6219643792    -1.5946375716     0.5681031444
Bq         3.6164611425    -1.5464410803     0.5802197696
Bq         3.6109579058    -1.4982445889     0.5923363948
Bq         3.6054546691    -1.4500480976     0.6044530201
Bq         3.5999514324    -1.4018516062     0.6165696453
Bq         3.5944481958    -1.3536551149     0.6286862705
Bq         3.5889449591    -1.3054586235     0.6408028957
Bq         3.5834417224    -1.2572621321     0.6529195210
Bq         3.5779384857    -1.2090656408     0.6650361462
Bq         3.5724352490    -1.1608691494     0.6771527714
Bq         3.5669320123    -1.1126726581     0.6892693967
Bq         3.5614287756    -1.0644761667     0.7013860219
Bq         3.5559255390    -1.0162796754     0.7135026471
Bq         3.5504223023    -0.9680831840     0.7256192723
Bq         3.5449190656    -0.9198866927     0.7377358976
Bq         3.5394158289    -0.8716902013     0.7498525228
Bq         3.5339125922    -0.8234937099     0.7619691480
Bq         3.5284093555    -0.7752972186     0.7740857733
Bq         3.5229061188    -0.7271007272     0.7862023985
Bq         3.5174028822    -0.6789042359     0.7983190237
Bq         3.5118996455    -0.6307077445     0.8104356490
Bq         3.5063964088    -0.5825112532     0.8225522742
Bq         3.5008931721    -0.5343147618     0.8346688994
Bq         3.4953899354    -0.4861182704     0.8467855246
Bq         3.4898866987    -0.4379217791     0.8589021499
Bq         3.4843834620    -0.3897252877     0.8710187751
Bq         3.4788802254    -0.3415287964     0.8831354003
Bq         3.4733769887    -0.2933323050     0.8952520256
Bq         3.4678737520    -0.2451358137     0.9073686508
Bq         3.4623705153    -0.1969393223     0.9194852760
Bq         3.4568672786    -0.1487428310     0.9316019012
Bq         3.4513640419    -0.1005463396     0.9437185265
Bq         3.4458608052    -0.0523498482     0.9558351517

1
2
3
4
5
6
7
8
9
10
11
12
13
14
15
16
17
18
19
20
21
22
23
24
25
26
27
28
29
30
31
32
33
34
35
36
37
38
39
40
41
42
43
44
45
46
47
48
49
50
51
52
53
54
55
56
57
58
59
60
61
62
63
64
65
66
67
68
69
70
71
72
73
74
75
76
77
78
79
80
81
82
83
84
85
86
87
88
89
90
91
92
93
94
95
96
97
98
99
100
101
102
103
104
105
106
107
108
109
110
111
112
113
114
115
116
117
118
119
120
121
122
123
124
125
126
127
128
129
130
131
132
133
134
135
136
137
138
139
140
141
142
143
144
145
146
147
148
149
150
151
152
153
154
155
156
157
158
159
160
161
162
163
164
165
166
167
168
169
170
171
172
173
174
175
176
177
178
179
180
181
182
183
184
185
186
187
188
189
190
191
192
193
194
195
196
197
198
199
200
201
202
203
204
205
206
207
208
209
210
211
212
213
214
215
216
217
218
219
220
221
222
223
224
225
226
227
228
229
230
231
232
233
234
235
236

