%nproc=8
%mem=1000MB
# rb3lyp/6-311+g** NMR geom=connectivity

Title

0 1
C    -4.0500558   -0.5771862    0.8136712
H    -5.0263804   -1.0082727    1.0024760
C    -3.9381552    0.6617804    0.2400876
H    -4.8252424    1.2338890   -0.0111295
C    -2.6768410    1.2433246    0.0057578
C    -1.4974121    0.5051527    0.2848253
C    -1.6508332   -0.7338728    0.9404026
H    -0.7713646   -1.2730967    1.2633753
C    -2.8898548   -1.2624035    1.1994307
H    -2.9683706   -2.2124563    1.7152676
C    -2.5773185    2.5963696   -0.4192930
H    -3.4870728    3.1412239   -0.6474055
C    -1.3741895    3.2147896   -0.4364030
H    -1.2997315    4.2742019   -0.6578144
C    -0.1719488    2.4994090   -0.1734588
C    -0.2043917    1.1018437    0.0192689
C     1.0513491    3.2042560   -0.0676222
H     1.0427344    4.2819499   -0.1896997
C     2.1942091    2.5487446    0.2579577
H     3.1168527    3.0912848    0.4334727
C     2.2216473    1.1336562    0.2934990
C     1.0486931    0.3945528    0.0302412
C     3.4483363    0.4614633    0.5573939
H     4.3095794    1.0606054    0.8334846
C     3.5427346   -0.8855926    0.4749463
H     4.4731467   -1.3939704    0.7038822
C     2.4490052   -1.6474447   -0.0196319
C     1.2150704   -1.0057258   -0.3013573
C     0.2531113   -1.7434440   -1.0216591
H    -0.6541356   -1.2535051   -1.3462847
C     0.4494193   -3.0628597   -1.3413779
H    -0.3083162   -3.5944309   -1.9054060
C     1.6251726   -3.7207967   -0.9552541
H     1.7670048   -4.7687404   -1.1927019
C     2.6109872   -3.0144177   -0.3183050
H     3.5525612   -3.4902813   -0.0646367
Bq        -1.9617200373     2.3448473597    -0.2643318984
Bq        -1.9612335602     2.3933172757    -0.2765969131
Bq        -1.9607470831     2.4417871916    -0.2888619278
Bq        -1.9602606060     2.4902571076    -0.3011269425
Bq        -1.9597741288     2.5387270236    -0.3133919572
Bq        -1.9592876517     2.5871969395    -0.3256569720
Bq        -1.9588011746     2.6356668555    -0.3379219867
Bq        -1.9583146975     2.6841367715    -0.3501870014
Bq        -1.9578282204     2.7326066875    -0.3624520161
Bq        -1.9573417433     2.7810766034    -0.3747170308
Bq        -1.9568552662     2.8295465194    -0.3869820455
Bq        -1.9563687891     2.8780164354    -0.3992470602
Bq        -1.9558823119     2.9264863513    -0.4115120750
Bq        -1.9553958348     2.9749562673    -0.4237770897
Bq        -1.9549093577     3.0234261833    -0.4360421044
Bq        -1.9544228806     3.0718960992    -0.4483071191
Bq        -1.9539364035     3.1203660152    -0.4605721338
Bq        -1.9534499264     3.1688359312    -0.4728371485
Bq        -1.9529634493     3.2173058471    -0.4851021632
Bq        -1.9524769722     3.2657757631    -0.4973671779
Bq        -1.9519904950     3.3142456791    -0.5096321927
Bq        -1.9515040179     3.3627155951    -0.5218972074
Bq        -1.9510175408     3.4111855110    -0.5341622221
Bq        -1.9505310637     3.4596554270    -0.5464272368
Bq        -1.9500445866     3.5081253430    -0.5586922515
Bq        -1.9495581095     3.5565952589    -0.5709572662
Bq        -1.9490716324     3.6050651749    -0.5832222809
Bq        -1.9485851553     3.6535350909    -0.5954872957
Bq        -1.9480986782     3.7020050068    -0.6077523104
Bq        -1.9476122010     3.7504749228    -0.6200173251
Bq        -1.9471257239     3.7989448388    -0.6322823398
Bq        -1.9466392468     3.8474147548    -0.6445473545
Bq        -1.9461527697     3.8958846707    -0.6568123692
Bq        -1.9456662926     3.9443545867    -0.6690773839
Bq        -1.9451798155     3.9928245027    -0.6813423986
Bq        -1.9446933384     4.0412944186    -0.6936074134
Bq        -1.9442068613     4.0897643346    -0.7058724281
Bq        -1.9437203841     4.1382342506    -0.7181374428
Bq        -1.9432339070     4.1867041665    -0.7304024575
Bq        -1.9427474299     4.2351740825    -0.7426674722
Bq        -1.9422609528     4.2836439985    -0.7549324869
Bq        -1.9409479481    -0.5633475985     0.4735506164
Bq        -1.9404614710    -0.5148776825     0.4612856016
Bq        -1.9399749939    -0.4664077665     0.4490205869
Bq        -1.9394885168    -0.4179378506     0.4367555722
Bq        -1.9390020397    -0.3694679346     0.4244905575
Bq        -1.9385155625    -0.3209980186     0.4122255428
Bq        -1.9380290854    -0.2725281027     0.3999605281
Bq        -1.9375426083    -0.2240581867     0.3876955134
Bq        -1.9370561312    -0.1755882707     0.3754304986
Bq        -1.9365696541    -0.1271183548     0.3631654839
Bq        -1.9360831770    -0.0786484388     0.3509004692
Bq        -1.9355966999    -0.0301785228     0.3386354545
Bq        -1.9351102228     0.0182913932     0.3263704398
Bq        -1.9346237457     0.0667613091     0.3141054251
Bq        -1.9341372685     0.1152312251     0.3018404104
Bq        -1.9336507914     0.1637011411     0.2895753957
Bq        -1.9331643143     0.2121710570     0.2773103809
Bq        -1.9326778372     0.2606409730     0.2650453662
Bq        -1.9321913601     0.3091108890     0.2527803515
Bq        -1.9317048830     0.3575808049     0.2405153368
Bq        -1.9312184059     0.4060507209     0.2282503221
Bq        -1.9307319288     0.4545206369     0.2159853074
Bq        -1.9302454516     0.5029905529     0.2037202927
Bq        -1.9297589745     0.5514604688     0.1914552779
Bq        -1.9292724974     0.5999303848     0.1791902632
Bq        -1.9287860203     0.6484003008     0.1669252485
Bq        -1.9282995432     0.6968702167     0.1546602338
Bq        -1.9278130661     0.7453401327     0.1423952191
Bq        -1.9273265890     0.7938100487     0.1301302044
Bq        -1.9268401119     0.8422799646     0.1178651897
Bq        -1.9263536347     0.8907498806     0.1056001750
Bq        -1.9258671576     0.9392197966     0.0933351602
Bq        -1.9253806805     0.9876897125     0.0810701455
Bq        -1.9248942034     1.0361596285     0.0688051308
Bq        -1.9244077263     1.0846295445     0.0565401161
Bq        -1.9239212492     1.1330994605     0.0442751014
Bq        -1.9234347721     1.1815693764     0.0320100867
Bq        -1.9229482950     1.2300392924     0.0197450720
Bq        -1.9224618178     1.2785092084     0.0074800572
Bq        -1.9219753407     1.3269791243    -0.0047849575
Bq        -1.9214888636     1.3754490403    -0.0170499722
Bq        -1.9210023865     1.4239189563    -0.0293149869
Bq        -1.9205159094     1.4723888722    -0.0415800016
Bq        -1.9200294323     1.5208587882    -0.0538450163
Bq        -1.9195429552     1.5693287042    -0.0661100310
Bq        -1.9190564781     1.6177986202    -0.0783750458
Bq        -1.9185700009     1.6662685361    -0.0906400605
Bq        -1.9180835238     1.7147384521    -0.1029050752
Bq        -1.9175970467     1.7632083681    -0.1151700899
Bq        -1.9171105696     1.8116782840    -0.1274351046
Bq        -1.9166240925     1.8601482000    -0.1397001193
Bq        -1.9161376154     1.9086181160    -0.1519651340
Bq        -1.9156511383     1.9570880319    -0.1642301487
Bq        -1.9151646612     2.0055579479    -0.1764951635
Bq        -1.9146781840     2.0540278639    -0.1887601782
Bq        -1.9141917069     2.1024977798    -0.2010251929
Bq        -1.9137052298     2.1509676958    -0.2132902076
Bq        -1.9132187527     2.1994376118    -0.2255552223
Bq        -1.9127322756     2.2479075278    -0.2378202370
Bq        -1.9122457985     2.2963774437    -0.2500852517
Bq        -1.9117593214     2.3448473597    -0.2623502665
Bq        -1.9112728443     2.3933172757    -0.2746152812
Bq        -1.9107863672     2.4417871916    -0.2868802959
Bq        -1.9102998900     2.4902571076    -0.2991453106
Bq        -1.9098134129     2.5387270236    -0.3114103253
Bq        -1.9093269358     2.5871969395    -0.3236753400
Bq        -1.9088404587     2.6356668555    -0.3359403547
Bq        -1.9083539816     2.6841367715    -0.3482053695
Bq        -1.9078675045     2.7326066875    -0.3604703842
Bq        -1.9073810274     2.7810766034    -0.3727353989
Bq        -1.9068945503     2.8295465194    -0.3850004136
Bq        -1.9064080731     2.8780164354    -0.3972654283
Bq        -1.9059215960     2.9264863513    -0.4095304430
Bq        -1.9054351189     2.9749562673    -0.4217954577
Bq        -1.9049486418     3.0234261833    -0.4340604724
Bq        -1.9044621647     3.0718960992    -0.4463254872
Bq        -1.9039756876     3.1203660152    -0.4585905019
Bq        -1.9034892105     3.1688359312    -0.4708555166
Bq        -1.9030027334     3.2173058471    -0.4831205313
Bq        -1.9025162562     3.2657757631    -0.4953855460
Bq        -1.9020297791     3.3142456791    -0.5076505607
Bq        -1.9015433020     3.3627155951    -0.5199155754
Bq        -1.9010568249     3.4111855110    -0.5321805902
Bq        -1.9005703478     3.4596554270    -0.5444456049
Bq        -1.9000838707     3.5081253430    -0.5567106196
Bq        -1.8995973936     3.5565952589    -0.5689756343
Bq        -1.8991109165     3.6050651749    -0.5812406490
Bq        -1.8986244393     3.6535350909    -0.5935056637
Bq        -1.8981379622     3.7020050068    -0.6057706784
Bq        -1.8976514851     3.7504749228    -0.6180356931
Bq        -1.8971650080     3.7989448388    -0.6303007079
Bq        -1.8966785309     3.8474147548    -0.6425657226
Bq        -1.8961920538     3.8958846707    -0.6548307373
Bq        -1.8957055767     3.9443545867    -0.6670957520
Bq        -1.8952190996     3.9928245027    -0.6793607667
Bq        -1.8947326224     4.0412944186    -0.6916257814
Bq        -1.8942461453     4.0897643346    -0.7038907961
Bq        -1.8937596682     4.1382342506    -0.7161558109
Bq        -1.8932731911     4.1867041665    -0.7284208256
Bq        -1.8927867140     4.2351740825    -0.7406858403
Bq        -1.8923002369     4.2836439985    -0.7529508550
Bq        -1.8909872322    -0.5633475985     0.4755322483
Bq        -1.8905007551    -0.5148776825     0.4632672336
Bq        -1.8900142780    -0.4664077665     0.4510022189
Bq        -1.8895278009    -0.4179378506     0.4387372041
Bq        -1.8890413237    -0.3694679346     0.4264721894
Bq        -1.8885548466    -0.3209980186     0.4142071747
Bq        -1.8880683695    -0.2725281027     0.4019421600
Bq        -1.8875818924    -0.2240581867     0.3896771453
Bq        -1.8870954153    -0.1755882707     0.3774121306
Bq        -1.8866089382    -0.1271183548     0.3651471159
Bq        -1.8861224611    -0.0786484388     0.3528821012
Bq        -1.8856359840    -0.0301785228     0.3406170864
Bq        -1.8851495068     0.0182913932     0.3283520717
Bq        -1.8846630297     0.0667613091     0.3160870570
Bq        -1.8841765526     0.1152312251     0.3038220423
Bq        -1.8836900755     0.1637011411     0.2915570276
Bq        -1.8832035984     0.2121710570     0.2792920129
Bq        -1.8827171213     0.2606409730     0.2670269982
Bq        -1.8822306442     0.3091108890     0.2547619834
Bq        -1.8817441671     0.3575808049     0.2424969687
Bq        -1.8812576899     0.4060507209     0.2302319540
Bq        -1.8807712128     0.4545206369     0.2179669393
Bq        -1.8802847357     0.5029905529     0.2057019246
Bq        -1.8797982586     0.5514604688     0.1934369099
Bq        -1.8793117815     0.5999303848     0.1811718952
Bq        -1.8788253044     0.6484003008     0.1689068805
Bq        -1.8783388273     0.6968702167     0.1566418657
Bq        -1.8778523502     0.7453401327     0.1443768510
Bq        -1.8773658731     0.7938100487     0.1321118363
Bq        -1.8768793959     0.8422799646     0.1198468216
Bq        -1.8763929188     0.8907498806     0.1075818069
Bq        -1.8759064417     0.9392197966     0.0953167922
Bq        -1.8754199646     0.9876897125     0.0830517775
Bq        -1.8749334875     1.0361596285     0.0707867627
Bq        -1.8744470104     1.0846295445     0.0585217480
Bq        -1.8739605333     1.1330994605     0.0462567333
Bq        -1.8734740562     1.1815693764     0.0339917186
Bq        -1.8729875790     1.2300392924     0.0217267039
Bq        -1.8725011019     1.2785092084     0.0094616892
Bq        -1.8720146248     1.3269791243    -0.0028033255
Bq        -1.8715281477     1.3754490403    -0.0150683403
Bq        -1.8710416706     1.4239189563    -0.0273333550
Bq        -1.8705551935     1.4723888722    -0.0395983697
Bq        -1.8700687164     1.5208587882    -0.0518633844
Bq        -1.8695822393     1.5693287042    -0.0641283991
Bq        -1.8690957621     1.6177986202    -0.0763934138
Bq        -1.8686092850     1.6662685361    -0.0886584285
Bq        -1.8681228079     1.7147384521    -0.1009234432
Bq        -1.8676363308     1.7632083681    -0.1131884580
Bq        -1.8671498537     1.8116782840    -0.1254534727
Bq        -1.8666633766     1.8601482000    -0.1377184874
Bq        -1.8661768995     1.9086181160    -0.1499835021
Bq        -1.8656904224     1.9570880319    -0.1622485168
Bq        -1.8652039452     2.0055579479    -0.1745135315
Bq        -1.8647174681     2.0540278639    -0.1867785462
Bq        -1.8642309910     2.1024977798    -0.1990435610
Bq        -1.8637445139     2.1509676958    -0.2113085757
Bq        -1.8632580368     2.1994376118    -0.2235735904

1
2
3
4
5
6
7
8
9
10
11
12
13
14
15
16
17
18
19
20
21
22
23
24
25
26
27
28
29
30
31
32
33
34
35
36
37
38
39
40
41
42
43
44
45
46
47
48
49
50
51
52
53
54
55
56
57
58
59
60
61
62
63
64
65
66
67
68
69
70
71
72
73
74
75
76
77
78
79
80
81
82
83
84
85
86
87
88
89
90
91
92
93
94
95
96
97
98
99
100
101
102
103
104
105
106
107
108
109
110
111
112
113
114
115
116
117
118
119
120
121
122
123
124
125
126
127
128
129
130
131
132
133
134
135
136
137
138
139
140
141
142
143
144
145
146
147
148
149
150
151
152
153
154
155
156
157
158
159
160
161
162
163
164
165
166
167
168
169
170
171
172
173
174
175
176
177
178
179
180
181
182
183
184
185
186
187
188
189
190
191
192
193
194
195
196
197
198
199
200
201
202
203
204
205
206
207
208
209
210
211
212
213
214
215
216
217
218
219
220
221
222
223
224
225
226
227
228
229
230
231
232
233
234
235
236

