%nproc=8
%mem=1000MB
# rb3lyp/6-311+g** NMR geom=connectivity

Title

0 1
C    -4.0500558   -0.5771862    0.8136712
H    -5.0263804   -1.0082727    1.0024760
C    -3.9381552    0.6617804    0.2400876
H    -4.8252424    1.2338890   -0.0111295
C    -2.6768410    1.2433246    0.0057578
C    -1.4974121    0.5051527    0.2848253
C    -1.6508332   -0.7338728    0.9404026
H    -0.7713646   -1.2730967    1.2633753
C    -2.8898548   -1.2624035    1.1994307
H    -2.9683706   -2.2124563    1.7152676
C    -2.5773185    2.5963696   -0.4192930
H    -3.4870728    3.1412239   -0.6474055
C    -1.3741895    3.2147896   -0.4364030
H    -1.2997315    4.2742019   -0.6578144
C    -0.1719488    2.4994090   -0.1734588
C    -0.2043917    1.1018437    0.0192689
C     1.0513491    3.2042560   -0.0676222
H     1.0427344    4.2819499   -0.1896997
C     2.1942091    2.5487446    0.2579577
H     3.1168527    3.0912848    0.4334727
C     2.2216473    1.1336562    0.2934990
C     1.0486931    0.3945528    0.0302412
C     3.4483363    0.4614633    0.5573939
H     4.3095794    1.0606054    0.8334846
C     3.5427346   -0.8855926    0.4749463
H     4.4731467   -1.3939704    0.7038822
C     2.4490052   -1.6474447   -0.0196319
C     1.2150704   -1.0057258   -0.3013573
C     0.2531113   -1.7434440   -1.0216591
H    -0.6541356   -1.2535051   -1.3462847
C     0.4494193   -3.0628597   -1.3413779
H    -0.3083162   -3.5944309   -1.9054060
C     1.6251726   -3.7207967   -0.9552541
H     1.7670048   -4.7687404   -1.1927019
C     2.6109872   -3.0144177   -0.3183050
H     3.5525612   -3.4902813   -0.0646367
Bq         0.8779931632    -1.8838165198    -0.7658749297
Bq         0.8724899266    -1.8356200284    -0.7537583044
Bq         0.8669866899    -1.7874235371    -0.7416416792
Bq         0.8614834532    -1.7392270457    -0.7295250540
Bq         0.8559802165    -1.6910305543    -0.7174084287
Bq         0.8504769798    -1.6428340630    -0.7052918035
Bq         0.8449737431    -1.5946375716    -0.6931751783
Bq         0.8394705064    -1.5464410803    -0.6810585531
Bq         0.8339672698    -1.4982445889    -0.6689419278
Bq         0.8284640331    -1.4500480976    -0.6568253026
Bq         0.8229607964    -1.4018516062    -0.6447086774
Bq         0.8174575597    -1.3536551149    -0.6325920521
Bq         0.8119543230    -1.3054586235    -0.6204754269
Bq         0.8064510863    -1.2572621321    -0.6083588017
Bq         0.8009478496    -1.2090656408    -0.5962421765
Bq         0.7954446130    -1.1608691494    -0.5841255512
Bq         0.7899413763    -1.1126726581    -0.5720089260
Bq         0.7844381396    -1.0644761667    -0.5598923008
Bq         0.7789349029    -1.0162796754    -0.5477756755
Bq         0.7734316662    -0.9680831840    -0.5356590503
Bq         0.7679284295    -0.9198866927    -0.5235424251
Bq         0.7624251928    -0.8716902013    -0.5114257999
Bq         0.7569219562    -0.8234937099    -0.4993091746
Bq         0.7514187195    -0.7752972186    -0.4871925494
Bq         0.7459154828    -0.7271007272    -0.4750759242
Bq         0.7404122461    -0.6789042359    -0.4629592989
Bq         0.7349090094    -0.6307077445    -0.4508426737
Bq         0.7294057727    -0.5825112532    -0.4387260485
Bq         0.7239025360    -0.5343147618    -0.4266094233
Bq         0.7183992994    -0.4861182704    -0.4144927980
Bq         0.7128960627    -0.4379217791    -0.4023761728
Bq         0.7073928260    -0.3897252877    -0.3902595476
Bq         0.7018895893    -0.3415287964    -0.3781429223
Bq         0.6963863526    -0.2933323050    -0.3660262971
Bq         0.6908831159    -0.2451358137    -0.3539096719
Bq         0.6853798792    -0.1969393223    -0.3417930467
Bq         0.6798766426    -0.1487428310    -0.3296764214
Bq         0.6743734059    -0.1005463396    -0.3175597962
Bq         0.6688701692    -0.0523498482    -0.3054431710
Bq         0.6633669325    -0.0041533569    -0.2933265457
Bq         0.6578636958     0.0440431345    -0.2812099205
Bq         1.2537118011    -4.7756060011    -1.4721957496
Bq         1.2482085644    -4.7274095098    -1.4600791244
Bq         1.2427053277    -4.6792130184    -1.4479624991
Bq         1.2372020910    -4.6310165271    -1.4358458739
Bq         1.2316988543    -4.5828200357    -1.4237292487
Bq         1.2261956176    -4.5346235444    -1.4116126234
Bq         1.2206923810    -4.4864270530    -1.3994959982
Bq         1.2151891443    -4.4382305616    -1.3873793730
Bq         1.2096859076    -4.3900340703    -1.3752627478
Bq         1.2041826709    -4.3418375789    -1.3631461225
Bq         1.1986794342    -4.2936410876    -1.3510294973
Bq         1.1931761975    -4.2454445962    -1.3389128721
Bq         1.1876729608    -4.1972481049    -1.3267962468
Bq         1.1821697241    -4.1490516135    -1.3146796216
Bq         1.1766664875    -4.1008551222    -1.3025629964
Bq         1.1711632508    -4.0526586308    -1.2904463712
Bq         1.1656600141    -4.0044621394    -1.2783297459
Bq         1.1601567774    -3.9562656481    -1.2662131207
Bq         1.1546535407    -3.9080691567    -1.2540964955
Bq         1.1491503040    -3.8598726654    -1.2419798702
Bq         1.1436470673    -3.8116761740    -1.2298632450
Bq         1.1381438307    -3.7634796827    -1.2177466198
Bq         1.1326405940    -3.7152831913    -1.2056299946
Bq         1.1271373573    -3.6670866999    -1.1935133693
Bq         1.1216341206    -3.6188902086    -1.1813967441
Bq         1.1161308839    -3.5706937172    -1.1692801189
Bq         1.1106276472    -3.5224972259    -1.1571634936
Bq         1.1051244105    -3.4743007345    -1.1450468684
Bq         1.0996211739    -3.4261042432    -1.1329302432
Bq         1.0941179372    -3.3779077518    -1.1208136180
Bq         1.0886147005    -3.3297112605    -1.1086969927
Bq         1.0831114638    -3.2815147691    -1.0965803675
Bq         1.0776082271    -3.2333182777    -1.0844637423
Bq         1.0721049904    -3.1851217864    -1.0723471170
Bq         1.0666017537    -3.1369252950    -1.0602304918
Bq         1.0610985171    -3.0887288037    -1.0481138666
Bq         1.0555952804    -3.0405323123    -1.0359972413
Bq         1.0500920437    -2.9923358210    -1.0238806161
Bq         1.0445888070    -2.9441393296    -1.0117639909
Bq         1.0390855703    -2.8959428383    -0.9996473657
Bq         1.0335823336    -2.8477463469    -0.9875307404
Bq         1.0280790969    -2.7995498555    -0.9754141152
Bq         1.0225758603    -2.7513533642    -0.9632974900
Bq         1.0170726236    -2.7031568728    -0.9511808647
Bq         1.0115693869    -2.6549603815    -0.9390642395
Bq         1.0060661502    -2.6067638901    -0.9269476143
Bq         1.0005629135    -2.5585673988    -0.9148309891
Bq         0.9950596768    -2.5103709074    -0.9027143638
Bq         0.9895564401    -2.4621744160    -0.8905977386
Bq         0.9840532035    -2.4139779247    -0.8784811134
Bq         0.9785499668    -2.3657814333    -0.8663644881
Bq         0.9730467301    -2.3175849420    -0.8542478629
Bq         0.9675434934    -2.2693884506    -0.8421312377
Bq         0.9620402567    -2.2211919593    -0.8300146125
Bq         0.9565370200    -2.1729954679    -0.8178979872
Bq         0.9510337833    -2.1247989766    -0.8057813620
Bq         0.9455305466    -2.0766024852    -0.7936647368
Bq         0.9400273100    -2.0284059938    -0.7815481115
Bq         0.9345240733    -1.9802095025    -0.7694314863
Bq         0.9290208366    -1.9320130111    -0.7573148611
Bq         0.9235175999    -1.8838165198    -0.7451982359
Bq         0.9180143632    -1.8356200284    -0.7330816106
Bq         0.9125111265    -1.7874235371    -0.7209649854
Bq         0.9070078898    -1.7392270457    -0.7088483602
Bq         0.9015046532    -1.6910305543    -0.6967317349
Bq         0.8960014165    -1.6428340630    -0.6846151097
Bq         0.8904981798    -1.5946375716    -0.6724984845
Bq         0.8849949431    -1.5464410803    -0.6603818592
Bq         0.8794917064    -1.4982445889    -0.6482652340
Bq         0.8739884697    -1.4500480976    -0.6361486088
Bq         0.8684852330    -1.4018516062    -0.6240319836
Bq         0.8629819964    -1.3536551149    -0.6119153583
Bq         0.8574787597    -1.3054586235    -0.5997987331
Bq         0.8519755230    -1.2572621321    -0.5876821079
Bq         0.8464722863    -1.2090656408    -0.5755654826
Bq         0.8409690496    -1.1608691494    -0.5634488574
Bq         0.8354658129    -1.1126726581    -0.5513322322
Bq         0.8299625762    -1.0644761667    -0.5392156070
Bq         0.8244593396    -1.0162796754    -0.5270989817
Bq         0.8189561029    -0.9680831840    -0.5149823565
Bq         0.8134528662    -0.9198866927    -0.5028657313
Bq         0.8079496295    -0.8716902013    -0.4907491060
Bq         0.8024463928    -0.8234937099    -0.4786324808
Bq         0.7969431561    -0.7752972186    -0.4665158556
Bq         0.7914399194    -0.7271007272    -0.4543992304
Bq         0.7859366828    -0.6789042359    -0.4422826051
Bq         0.7804334461    -0.6307077445    -0.4301659799
Bq         0.7749302094    -0.5825112532    -0.4180493547
Bq         0.7694269727    -0.5343147618    -0.4059327294
Bq         0.7639237360    -0.4861182704    -0.3938161042
Bq         0.7584204993    -0.4379217791    -0.3816994790
Bq         0.7529172626    -0.3897252877    -0.3695828538
Bq         0.7474140260    -0.3415287964    -0.3574662285
Bq         0.7419107893    -0.2933323050    -0.3453496033
Bq         0.7364075526    -0.2451358137    -0.3332329781
Bq         0.7309043159    -0.1969393223    -0.3211163528
Bq         0.7254010792    -0.1487428310    -0.3089997276
Bq         0.7198978425    -0.1005463396    -0.2968831024
Bq         0.7143946058    -0.0523498482    -0.2847664771
Bq         0.7088913691    -0.0041533569    -0.2726498519
Bq         0.7033881325     0.0440431345    -0.2605332267
Bq         1.2992362377    -4.7756060011    -1.4515190558
Bq         1.2937330010    -4.7274095098    -1.4394024305
Bq         1.2882297644    -4.6792130184    -1.4272858053
Bq         1.2827265277    -4.6310165271    -1.4151691801
Bq         1.2772232910    -4.5828200357    -1.4030525549
Bq         1.2717200543    -4.5346235444    -1.3909359296
Bq         1.2662168176    -4.4864270530    -1.3788193044
Bq         1.2607135809    -4.4382305616    -1.3667026792
Bq         1.2552103442    -4.3900340703    -1.3545860539
Bq         1.2497071076    -4.3418375789    -1.3424694287
Bq         1.2442038709    -4.2936410876    -1.3303528035
Bq         1.2387006342    -4.2454445962    -1.3182361783
Bq         1.2331973975    -4.1972481049    -1.3061195530
Bq         1.2276941608    -4.1490516135    -1.2940029278
Bq         1.2221909241    -4.1008551222    -1.2818863026
Bq         1.2166876874    -4.0526586308    -1.2697696773
Bq         1.2111844507    -4.0044621394    -1.2576530521
Bq         1.2056812141    -3.9562656481    -1.2455364269
Bq         1.2001779774    -3.9080691567    -1.2334198017
Bq         1.1946747407    -3.8598726654    -1.2213031764
Bq         1.1891715040    -3.8116761740    -1.2091865512
Bq         1.1836682673    -3.7634796827    -1.1970699260
Bq         1.1781650306    -3.7152831913    -1.1849533007
Bq         1.1726617939    -3.6670866999    -1.1728366755
Bq         1.1671585573    -3.6188902086    -1.1607200503
Bq         1.1616553206    -3.5706937172    -1.1486034251
Bq         1.1561520839    -3.5224972259    -1.1364867998
Bq         1.1506488472    -3.4743007345    -1.1243701746
Bq         1.1451456105    -3.4261042432    -1.1122535494
Bq         1.1396423738    -3.3779077518    -1.1001369241
Bq         1.1341391371    -3.3297112605    -1.0880202989
Bq         1.1286359005    -3.2815147691    -1.0759036737
Bq         1.1231326638    -3.2333182777    -1.0637870484
Bq         1.1176294271    -3.1851217864    -1.0516704232
Bq         1.1121261904    -3.1369252950    -1.0395537980
Bq         1.1066229537    -3.0887288037    -1.0274371728
Bq         1.1011197170    -3.0405323123    -1.0153205475
Bq         1.0956164803    -2.9923358210    -1.0032039223
Bq         1.0901132437    -2.9441393296    -0.9910872971
Bq         1.0846100070    -2.8959428383    -0.9789706718
Bq         1.0791067703    -2.8477463469    -0.9668540466
Bq         1.0736035336    -2.7995498555    -0.9547374214
Bq         1.0681002969    -2.7513533642    -0.9426207962
Bq         1.0625970602    -2.7031568728    -0.9305041709
Bq         1.0570938235    -2.6549603815    -0.9183875457
Bq         1.0515905869    -2.6067638901    -0.9062709205
Bq         1.0460873502    -2.5585673988    -0.8941542952
Bq         1.0405841135    -2.5103709074    -0.8820376700
Bq         1.0350808768    -2.4621744160    -0.8699210448
Bq         1.0295776401    -2.4139779247    -0.8578044196
Bq         1.0240744034    -2.3657814333    -0.8456877943
Bq         1.0185711667    -2.3175849420    -0.8335711691
Bq         1.0130679301    -2.2693884506    -0.8214545439
Bq         1.0075646934    -2.2211919593    -0.8093379186
Bq         1.0020614567    -2.1729954679    -0.7972212934
Bq         0.9965582200    -2.1247989766    -0.7851046682
Bq         0.9910549833    -2.0766024852    -0.7729880430
Bq         0.9855517466    -2.0284059938    -0.7608714177

1
2
3
4
5
6
7
8
9
10
11
12
13
14
15
16
17
18
19
20
21
22
23
24
25
26
27
28
29
30
31
32
33
34
35
36
37
38
39
40
41
42
43
44
45
46
47
48
49
50
51
52
53
54
55
56
57
58
59
60
61
62
63
64
65
66
67
68
69
70
71
72
73
74
75
76
77
78
79
80
81
82
83
84
85
86
87
88
89
90
91
92
93
94
95
96
97
98
99
100
101
102
103
104
105
106
107
108
109
110
111
112
113
114
115
116
117
118
119
120
121
122
123
124
125
126
127
128
129
130
131
132
133
134
135
136
137
138
139
140
141
142
143
144
145
146
147
148
149
150
151
152
153
154
155
156
157
158
159
160
161
162
163
164
165
166
167
168
169
170
171
172
173
174
175
176
177
178
179
180
181
182
183
184
185
186
187
188
189
190
191
192
193
194
195
196
197
198
199
200
201
202
203
204
205
206
207
208
209
210
211
212
213
214
215
216
217
218
219
220
221
222
223
224
225
226
227
228
229
230
231
232
233
234
235
236

