%nproc=8
%mem=1000MB
# rb3lyp/6-311+g** NMR geom=connectivity

Title

0 1
C    -4.0500558   -0.5771862    0.8136712
H    -5.0263804   -1.0082727    1.0024760
C    -3.9381552    0.6617804    0.2400876
H    -4.8252424    1.2338890   -0.0111295
C    -2.6768410    1.2433246    0.0057578
C    -1.4974121    0.5051527    0.2848253
C    -1.6508332   -0.7338728    0.9404026
H    -0.7713646   -1.2730967    1.2633753
C    -2.8898548   -1.2624035    1.1994307
H    -2.9683706   -2.2124563    1.7152676
C    -2.5773185    2.5963696   -0.4192930
H    -3.4870728    3.1412239   -0.6474055
C    -1.3741895    3.2147896   -0.4364030
H    -1.2997315    4.2742019   -0.6578144
C    -0.1719488    2.4994090   -0.1734588
C    -0.2043917    1.1018437    0.0192689
C     1.0513491    3.2042560   -0.0676222
H     1.0427344    4.2819499   -0.1896997
C     2.1942091    2.5487446    0.2579577
H     3.1168527    3.0912848    0.4334727
C     2.2216473    1.1336562    0.2934990
C     1.0486931    0.3945528    0.0302412
C     3.4483363    0.4614633    0.5573939
H     4.3095794    1.0606054    0.8334846
C     3.5427346   -0.8855926    0.4749463
H     4.4731467   -1.3939704    0.7038822
C     2.4490052   -1.6474447   -0.0196319
C     1.2150704   -1.0057258   -0.3013573
C     0.2531113   -1.7434440   -1.0216591
H    -0.6541356   -1.2535051   -1.3462847
C     0.4494193   -3.0628597   -1.3413779
H    -0.3083162   -3.5944309   -1.9054060
C     1.6251726   -3.7207967   -0.9552541
H     1.7670048   -4.7687404   -1.1927019
C     2.6109872   -3.0144177   -0.3183050
H     3.5525612   -3.4902813   -0.0646367
Bq         0.2656610831    -1.3054586235    -0.8685957527
Bq         0.2601578464    -1.2572621321    -0.8564791275
Bq         0.2546546098    -1.2090656408    -0.8443625022
Bq         0.2491513731    -1.1608691494    -0.8322458770
Bq         0.2436481364    -1.1126726581    -0.8201292518
Bq         0.2381448997    -1.0644761667    -0.8080126265
Bq         0.2326416630    -1.0162796754    -0.7958960013
Bq         0.2271384263    -0.9680831840    -0.7837793761
Bq         0.2216351896    -0.9198866927    -0.7716627509
Bq         0.2161319530    -0.8716902013    -0.7595461256
Bq         0.2106287163    -0.8234937099    -0.7474295004
Bq         0.2051254796    -0.7752972186    -0.7353128752
Bq         0.1996222429    -0.7271007272    -0.7231962499
Bq         0.1941190062    -0.6789042359    -0.7110796247
Bq         0.1886157695    -0.6307077445    -0.6989629995
Bq         0.1831125328    -0.5825112532    -0.6868463743
Bq         0.1776092962    -0.5343147618    -0.6747297490
Bq         0.1721060595    -0.4861182704    -0.6626131238
Bq         0.1666028228    -0.4379217791    -0.6504964986
Bq         0.1610995861    -0.3897252877    -0.6383798733
Bq         0.1555963494    -0.3415287964    -0.6262632481
Bq         0.1500931127    -0.2933323050    -0.6141466229
Bq         0.1445898760    -0.2451358137    -0.6020299976
Bq         0.1390866394    -0.1969393223    -0.5899133724
Bq         0.1335834027    -0.1487428310    -0.5777967472
Bq         0.1280801660    -0.1005463396    -0.5656801220
Bq         0.1225769293    -0.0523498482    -0.5535634967
Bq         0.1170736926    -0.0041533569    -0.5414468715
Bq         0.1115704559     0.0440431345    -0.5293302463
Bq         0.7074185612    -4.7756060011    -1.7203160754
Bq         0.7019153245    -4.7274095098    -1.7081994501
Bq         0.6964120878    -4.6792130184    -1.6960828249
Bq         0.6909088511    -4.6310165271    -1.6839661997
Bq         0.6854056144    -4.5828200357    -1.6718495744
Bq         0.6799023778    -4.5346235444    -1.6597329492
Bq         0.6743991411    -4.4864270530    -1.6476163240
Bq         0.6688959044    -4.4382305616    -1.6354996988
Bq         0.6633926677    -4.3900340703    -1.6233830735
Bq         0.6578894310    -4.3418375789    -1.6112664483
Bq         0.6523861943    -4.2936410876    -1.5991498231
Bq         0.6468829576    -4.2454445962    -1.5870331978
Bq         0.6413797210    -4.1972481049    -1.5749165726
Bq         0.6358764843    -4.1490516135    -1.5627999474
Bq         0.6303732476    -4.1008551222    -1.5506833222
Bq         0.6248700109    -4.0526586308    -1.5385666969
Bq         0.6193667742    -4.0044621394    -1.5264500717
Bq         0.6138635375    -3.9562656481    -1.5143334465
Bq         0.6083603008    -3.9080691567    -1.5022168212
Bq         0.6028570642    -3.8598726654    -1.4901001960
Bq         0.5973538275    -3.8116761740    -1.4779835708
Bq         0.5918505908    -3.7634796827    -1.4658669456
Bq         0.5863473541    -3.7152831913    -1.4537503203
Bq         0.5808441174    -3.6670866999    -1.4416336951
Bq         0.5753408807    -3.6188902086    -1.4295170699
Bq         0.5698376440    -3.5706937172    -1.4174004446
Bq         0.5643344073    -3.5224972259    -1.4052838194
Bq         0.5588311707    -3.4743007345    -1.3931671942
Bq         0.5533279340    -3.4261042432    -1.3810505689
Bq         0.5478246973    -3.3779077518    -1.3689339437
Bq         0.5423214606    -3.3297112605    -1.3568173185
Bq         0.5368182239    -3.2815147691    -1.3447006933
Bq         0.5313149872    -3.2333182777    -1.3325840680
Bq         0.5258117505    -3.1851217864    -1.3204674428
Bq         0.5203085139    -3.1369252950    -1.3083508176
Bq         0.5148052772    -3.0887288037    -1.2962341923
Bq         0.5093020405    -3.0405323123    -1.2841175671
Bq         0.5037988038    -2.9923358210    -1.2720009419
Bq         0.4982955671    -2.9441393296    -1.2598843167
Bq         0.4927923304    -2.8959428383    -1.2477676914
Bq         0.4872890937    -2.8477463469    -1.2356510662
Bq         0.4817858571    -2.7995498555    -1.2235344410
Bq         0.4762826204    -2.7513533642    -1.2114178157
Bq         0.4707793837    -2.7031568728    -1.1993011905
Bq         0.4652761470    -2.6549603815    -1.1871845653
Bq         0.4597729103    -2.6067638901    -1.1750679401
Bq         0.4542696736    -2.5585673988    -1.1629513148
Bq         0.4487664369    -2.5103709074    -1.1508346896
Bq         0.4432632003    -2.4621744160    -1.1387180644
Bq         0.4377599636    -2.4139779247    -1.1266014391
Bq         0.4322567269    -2.3657814333    -1.1144848139
Bq         0.4267534902    -2.3175849420    -1.1023681887
Bq         0.4212502535    -2.2693884506    -1.0902515635
Bq         0.4157470168    -2.2211919593    -1.0781349382
Bq         0.4102437801    -2.1729954679    -1.0660183130
Bq         0.4047405435    -2.1247989766    -1.0539016878
Bq         0.3992373068    -2.0766024852    -1.0417850625
Bq         0.3937340701    -2.0284059938    -1.0296684373
Bq         0.3882308334    -1.9802095025    -1.0175518121
Bq         0.3827275967    -1.9320130111    -1.0054351869
Bq         0.3772243600    -1.8838165198    -0.9933185616
Bq         0.3717211233    -1.8356200284    -0.9812019364
Bq         0.3662178867    -1.7874235371    -0.9690853112
Bq         0.3607146500    -1.7392270457    -0.9569686859
Bq         0.3552114133    -1.6910305543    -0.9448520607
Bq         0.3497081766    -1.6428340630    -0.9327354355
Bq         0.3442049399    -1.5946375716    -0.9206188102
Bq         0.3387017032    -1.5464410803    -0.9085021850
Bq         0.3331984665    -1.4982445889    -0.8963855598
Bq         0.3276952298    -1.4500480976    -0.8842689346
Bq         0.3221919932    -1.4018516062    -0.8721523093
Bq         0.3166887565    -1.3536551149    -0.8600356841
Bq         0.3111855198    -1.3054586235    -0.8479190589
Bq         0.3056822831    -1.2572621321    -0.8358024336
Bq         0.3001790464    -1.2090656408    -0.8236858084
Bq         0.2946758097    -1.1608691494    -0.8115691832
Bq         0.2891725730    -1.1126726581    -0.7994525580
Bq         0.2836693364    -1.0644761667    -0.7873359327
Bq         0.2781660997    -1.0162796754    -0.7752193075
Bq         0.2726628630    -0.9680831840    -0.7631026823
Bq         0.2671596263    -0.9198866927    -0.7509860570
Bq         0.2616563896    -0.8716902013    -0.7388694318
Bq         0.2561531529    -0.8234937099    -0.7267528066
Bq         0.2506499162    -0.7752972186    -0.7146361814
Bq         0.2451466796    -0.7271007272    -0.7025195561
Bq         0.2396434429    -0.6789042359    -0.6904029309
Bq         0.2341402062    -0.6307077445    -0.6782863057
Bq         0.2286369695    -0.5825112532    -0.6661696804
Bq         0.2231337328    -0.5343147618    -0.6540530552
Bq         0.2176304961    -0.4861182704    -0.6419364300
Bq         0.2121272594    -0.4379217791    -0.6298198048
Bq         0.2066240228    -0.3897252877    -0.6177031795
Bq         0.2011207861    -0.3415287964    -0.6055865543
Bq         0.1956175494    -0.2933323050    -0.5934699291
Bq         0.1901143127    -0.2451358137    -0.5813533038
Bq         0.1846110760    -0.1969393223    -0.5692366786
Bq         0.1791078393    -0.1487428310    -0.5571200534
Bq         0.1736046026    -0.1005463396    -0.5450034281
Bq         0.1681013660    -0.0523498482    -0.5328868029
Bq         0.1625981293    -0.0041533569    -0.5207701777
Bq         0.1570948926     0.0440431345    -0.5086535525
Bq         0.7529429978    -4.7756060011    -1.6996393815
Bq         0.7474397612    -4.7274095098    -1.6875227563
Bq         0.7419365245    -4.6792130184    -1.6754061311
Bq         0.7364332878    -4.6310165271    -1.6632895059
Bq         0.7309300511    -4.5828200357    -1.6511728806
Bq         0.7254268144    -4.5346235444    -1.6390562554
Bq         0.7199235777    -4.4864270530    -1.6269396302
Bq         0.7144203410    -4.4382305616    -1.6148230049
Bq         0.7089171044    -4.3900340703    -1.6027063797
Bq         0.7034138677    -4.3418375789    -1.5905897545
Bq         0.6979106310    -4.2936410876    -1.5784731293
Bq         0.6924073943    -4.2454445962    -1.5663565040
Bq         0.6869041576    -4.1972481049    -1.5542398788
Bq         0.6814009209    -4.1490516135    -1.5421232536
Bq         0.6758976842    -4.1008551222    -1.5300066283
Bq         0.6703944476    -4.0526586308    -1.5178900031
Bq         0.6648912109    -4.0044621394    -1.5057733779
Bq         0.6593879742    -3.9562656481    -1.4936567527
Bq         0.6538847375    -3.9080691567    -1.4815401274
Bq         0.6483815008    -3.8598726654    -1.4694235022
Bq         0.6428782641    -3.8116761740    -1.4573068770
Bq         0.6373750274    -3.7634796827    -1.4451902517
Bq         0.6318717908    -3.7152831913    -1.4330736265
Bq         0.6263685541    -3.6670866999    -1.4209570013
Bq         0.6208653174    -3.6188902086    -1.4088403761
Bq         0.6153620807    -3.5706937172    -1.3967237508
Bq         0.6098588440    -3.5224972259    -1.3846071256
Bq         0.6043556073    -3.4743007345    -1.3724905004
Bq         0.5988523706    -3.4261042432    -1.3603738751
Bq         0.5933491339    -3.3779077518    -1.3482572499
Bq         0.5878458973    -3.3297112605    -1.3361406247
Bq         0.5823426606    -3.2815147691    -1.3240239994
Bq         0.5768394239    -3.2333182777    -1.3119073742
Bq         0.5713361872    -3.1851217864    -1.2997907490
Bq         0.5658329505    -3.1369252950    -1.2876741238
Bq         0.5603297138    -3.0887288037    -1.2755574985
Bq         0.5548264771    -3.0405323123    -1.2634408733
Bq         0.5493232405    -2.9923358210    -1.2513242481
Bq         0.5438200038    -2.9441393296    -1.2392076228
Bq         0.5383167671    -2.8959428383    -1.2270909976
Bq         0.5328135304    -2.8477463469    -1.2149743724
Bq         0.5273102937    -2.7995498555    -1.2028577472
Bq         0.5218070570    -2.7513533642    -1.1907411219
Bq         0.5163038203    -2.7031568728    -1.1786244967
Bq         0.5108005837    -2.6549603815    -1.1665078715
Bq         0.5052973470    -2.6067638901    -1.1543912462
Bq         0.4997941103    -2.5585673988    -1.1422746210
Bq         0.4942908736    -2.5103709074    -1.1301579958
Bq         0.4887876369    -2.4621744160    -1.1180413706
Bq         0.4832844002    -2.4139779247    -1.1059247453
Bq         0.4777811635    -2.3657814333    -1.0938081201
Bq         0.4722779269    -2.3175849420    -1.0816914949
Bq         0.4667746902    -2.2693884506    -1.0695748696
Bq         0.4612714535    -2.2211919593    -1.0574582444
Bq         0.4557682168    -2.1729954679    -1.0453416192
Bq         0.4502649801    -2.1247989766    -1.0332249940
Bq         0.4447617434    -2.0766024852    -1.0211083687
Bq         0.4392585067    -2.0284059938    -1.0089917435
Bq         0.4337552701    -1.9802095025    -0.9968751183
Bq         0.4282520334    -1.9320130111    -0.9847584930
Bq         0.4227487967    -1.8838165198    -0.9726418678
Bq         0.4172455600    -1.8356200284    -0.9605252426
Bq         0.4117423233    -1.7874235371    -0.9484086173
Bq         0.4062390866    -1.7392270457    -0.9362919921
Bq         0.4007358499    -1.6910305543    -0.9241753669
Bq         0.3952326133    -1.6428340630    -0.9120587417
Bq         0.3897293766    -1.5946375716    -0.8999421164
Bq         0.3842261399    -1.5464410803    -0.8878254912
Bq         0.3787229032    -1.4982445889    -0.8757088660
Bq         0.3732196665    -1.4500480976    -0.8635922407

1
2
3
4
5
6
7
8
9
10
11
12
13
14
15
16
17
18
19
20
21
22
23
24
25
26
27
28
29
30
31
32
33
34
35
36
37
38
39
40
41
42
43
44
45
46
47
48
49
50
51
52
53
54
55
56
57
58
59
60
61
62
63
64
65
66
67
68
69
70
71
72
73
74
75
76
77
78
79
80
81
82
83
84
85
86
87
88
89
90
91
92
93
94
95
96
97
98
99
100
101
102
103
104
105
106
107
108
109
110
111
112
113
114
115
116
117
118
119
120
121
122
123
124
125
126
127
128
129
130
131
132
133
134
135
136
137
138
139
140
141
142
143
144
145
146
147
148
149
150
151
152
153
154
155
156
157
158
159
160
161
162
163
164
165
166
167
168
169
170
171
172
173
174
175
176
177
178
179
180
181
182
183
184
185
186
187
188
189
190
191
192
193
194
195
196
197
198
199
200
201
202
203
204
205
206
207
208
209
210
211
212
213
214
215
216
217
218
219
220
221
222
223
224
225
226
227
228
229
230
231
232
233
234
235
236

