%nproc=8
%mem=1000MB
# rb3lyp/6-311+g** NMR geom=connectivity

Title

0 1
C    -4.0500558   -0.5771862    0.8136712
H    -5.0263804   -1.0082727    1.0024760
C    -3.9381552    0.6617804    0.2400876
H    -4.8252424    1.2338890   -0.0111295
C    -2.6768410    1.2433246    0.0057578
C    -1.4974121    0.5051527    0.2848253
C    -1.6508332   -0.7338728    0.9404026
H    -0.7713646   -1.2730967    1.2633753
C    -2.8898548   -1.2624035    1.1994307
H    -2.9683706   -2.2124563    1.7152676
C    -2.5773185    2.5963696   -0.4192930
H    -3.4870728    3.1412239   -0.6474055
C    -1.3741895    3.2147896   -0.4364030
H    -1.2997315    4.2742019   -0.6578144
C    -0.1719488    2.4994090   -0.1734588
C    -0.2043917    1.1018437    0.0192689
C     1.0513491    3.2042560   -0.0676222
H     1.0427344    4.2819499   -0.1896997
C     2.1942091    2.5487446    0.2579577
H     3.1168527    3.0912848    0.4334727
C     2.2216473    1.1336562    0.2934990
C     1.0486931    0.3945528    0.0302412
C     3.4483363    0.4614633    0.5573939
H     4.3095794    1.0606054    0.8334846
C     3.5427346   -0.8855926    0.4749463
H     4.4731467   -1.3939704    0.7038822
C     2.4490052   -1.6474447   -0.0196319
C     1.2150704   -1.0057258   -0.3013573
C     0.2531113   -1.7434440   -1.0216591
H    -0.6541356   -1.2535051   -1.3462847
C     0.4494193   -3.0628597   -1.3413779
H    -0.3083162   -3.5944309   -1.9054060
C     1.6251726   -3.7207967   -0.9552541
H     1.7670048   -4.7687404   -1.1927019
C     2.6109872   -3.0144177   -0.3183050
H     3.5525612   -3.4902813   -0.0646367
Bq         3.8769031676    -1.8419049046     0.3547796848
Bq         3.8750576424    -1.7924135576     0.3616499546
Bq         3.8732121171    -1.7429222105     0.3685202243
Bq         3.8713665918    -1.6934308635     0.3753904941
Bq         3.8695210665    -1.6439395165     0.3822607639
Bq         3.8676755413    -1.5944481695     0.3891310337
Bq         3.8658300160    -1.5449568225     0.3960013035
Bq         3.8639844907    -1.4954654754     0.4028715732
Bq         3.8621389655    -1.4459741284     0.4097418430
Bq         3.8602934402    -1.3964827814     0.4166121128
Bq         3.8584479149    -1.3469914344     0.4234823826
Bq         3.8566023897    -1.2975000874     0.4303526524
Bq         3.8547568644    -1.2480087404     0.4372229221
Bq         3.8529113391    -1.1985173933     0.4440931919
Bq         3.8510658139    -1.1490260463     0.4509634617
Bq         3.8492202886    -1.0995346993     0.4578337315
Bq         3.8473747633    -1.0500433523     0.4647040013
Bq         3.8455292381    -1.0005520053     0.4715742710
Bq         3.8436837128    -0.9510606583     0.4784445408
Bq         3.8418381875    -0.9015693112     0.4853148106
Bq         3.8399926623    -0.8520779642     0.4921850804
Bq         3.8381471370    -0.8025866172     0.4990553502
Bq         3.8363016117    -0.7530952702     0.5059256199
Bq         3.8344560865    -0.7036039232     0.5127958897
Bq         3.8326105612    -0.6541125761     0.5196661595
Bq         3.8307650359    -0.6046212291     0.5265364293
Bq         3.8289195107    -0.5551298821     0.5334066991
Bq         3.8270739854    -0.5056385351     0.5402769688
Bq         3.8252284601    -0.4561471881     0.5471472386
Bq         3.8233829349    -0.4066558411     0.5540175084
Bq         3.8215374096    -0.3571644940     0.5608877782
Bq         3.8196918843    -0.3076731470     0.5677580479
Bq         3.8178463591    -0.2581818000     0.5746283177
Bq         3.8160008338    -0.2086904530     0.5814985875
Bq         3.8141553085    -0.1591991060     0.5883688573
Bq         3.8123097833    -0.1097077589     0.5952391271
Bq         3.8104642580    -0.0602164119     0.6021093968
Bq         3.8086187327    -0.0107250649     0.6089796666
Bq         3.8067732074     0.0387662821     0.6158499364
Bq         3.8049276822     0.0882576291     0.6227202062
Bq         3.8030821569     0.1377489761     0.6295904760
Bq         3.8012366316     0.1872403232     0.6364607457
Bq         3.7993911064     0.2367316702     0.6433310155
Bq         3.7975455811     0.2862230172     0.6502012853
Bq         3.7957000558     0.3357143642     0.6570715551
Bq         3.7938545306     0.3852057112     0.6639418249
Bq         3.7920090053     0.4346970583     0.6708120946
Bq         3.7901634800     0.4841884053     0.6776823644
Bq         3.7883179548     0.5336797523     0.6845526342
Bq         3.7864724295     0.5831710993     0.6914229040
Bq         3.7846269042     0.6326624463     0.6982931738
Bq         3.7827813790     0.6821537933     0.7051634435
Bq         3.7809358537     0.7316451404     0.7120337133
Bq         3.7790903284     0.7811364874     0.7189039831
Bq         3.7772448032     0.8306278344     0.7257742529
Bq         3.7753992779     0.8801191814     0.7326445227
Bq         3.7735537526     0.9296105284     0.7395147924
Bq         3.7717082274     0.9791018754     0.7463850622
Bq         3.7698627021     1.0285932225     0.7532553320
Bq         3.7680171768     1.0780845695     0.7601256018
Bq         3.7661716516     1.1275759165     0.7669958716
Bq         3.7643261263     1.1770672635     0.7738661413
Bq         3.7624806010     1.2265586105     0.7807364111
Bq         3.7606350758     1.2760499576     0.7876066809
Bq         3.7587895505     1.3255413046     0.7944769507
Bq         3.7569440252     1.3750326516     0.8013472205
Bq         3.7550985000     1.4245239986     0.8082174902
Bq         3.7532529747     1.4740153456     0.8150877600
Bq         3.7514074494     1.5235066926     0.8219580298
Bq         3.7495619241     1.5729980397     0.8288282996
Bq         3.7477163989     1.6224893867     0.8356985693
Bq         3.7458708736     1.6719807337     0.8425688391
Bq         3.7440253483     1.7214720807     0.8494391089
Bq         3.7421798231     1.7709634277     0.8563093787
Bq         3.7403342978     1.8204547748     0.8631796485
Bq         3.7384887725     1.8699461218     0.8700499182
Bq         3.7366432473     1.9194374688     0.8769201880
Bq         3.7347977220     1.9689288158     0.8837904578
Bq         3.7329521967     2.0184201628     0.8906607276
Bq         3.7311066715     2.0679115098     0.8975309974
Bq         3.7292611462     2.1174028569     0.9044012671
Bq         3.7274156209     2.1668942039     0.9112715369
Bq         3.7255700957     2.2163855509     0.9181418067
Bq         3.9584107475    -2.7327491509     0.2440862197
Bq         3.9565652222    -2.6832578039     0.2509564894
Bq         3.9547196969    -2.6337664569     0.2578267592
Bq         3.9528741717    -2.5842751098     0.2646970290
Bq         3.9510286464    -2.5347837628     0.2715672988
Bq         3.9491831211    -2.4852924158     0.2784375685
Bq         3.9473375959    -2.4358010688     0.2853078383
Bq         3.9454920706    -2.3863097218     0.2921781081
Bq         3.9436465453    -2.3368183748     0.2990483779
Bq         3.9418010201    -2.2873270277     0.3059186477
Bq         3.9399554948    -2.2378356807     0.3127889174
Bq         3.9381099695    -2.1883443337     0.3196591872
Bq         3.9362644442    -2.1388529867     0.3265294570
Bq         3.9344189190    -2.0893616397     0.3333997268
Bq         3.9325733937    -2.0398702926     0.3402699966
Bq         3.9307278684    -1.9903789456     0.3471402663
Bq         3.9288823432    -1.9408875986     0.3540105361
Bq         3.9270368179    -1.8913962516     0.3608808059
Bq         3.9251912926    -1.8419049046     0.3677510757
Bq         3.9233457674    -1.7924135576     0.3746213455
Bq         3.9215002421    -1.7429222105     0.3814916152
Bq         3.9196547168    -1.6934308635     0.3883618850
Bq         3.9178091916    -1.6439395165     0.3952321548
Bq         3.9159636663    -1.5944481695     0.4021024246
Bq         3.9141181410    -1.5449568225     0.4089726944
Bq         3.9122726158    -1.4954654754     0.4158429641
Bq         3.9104270905    -1.4459741284     0.4227132339
Bq         3.9085815652    -1.3964827814     0.4295835037
Bq         3.9067360400    -1.3469914344     0.4364537735
Bq         3.9048905147    -1.2975000874     0.4433240433
Bq         3.9030449894    -1.2480087404     0.4501943130
Bq         3.9011994642    -1.1985173933     0.4570645828
Bq         3.8993539389    -1.1490260463     0.4639348526
Bq         3.8975084136    -1.0995346993     0.4708051224
Bq         3.8956628884    -1.0500433523     0.4776753922
Bq         3.8938173631    -1.0005520053     0.4845456619
Bq         3.8919718378    -0.9510606583     0.4914159317
Bq         3.8901263126    -0.9015693112     0.4982862015
Bq         3.8882807873    -0.8520779642     0.5051564713
Bq         3.8864352620    -0.8025866172     0.5120267410
Bq         3.8845897368    -0.7530952702     0.5188970108
Bq         3.8827442115    -0.7036039232     0.5257672806
Bq         3.8808986862    -0.6541125761     0.5326375504
Bq         3.8790531610    -0.6046212291     0.5395078202
Bq         3.8772076357    -0.5551298821     0.5463780899
Bq         3.8753621104    -0.5056385351     0.5532483597
Bq         3.8735165851    -0.4561471881     0.5601186295
Bq         3.8716710599    -0.4066558411     0.5669888993
Bq         3.8698255346    -0.3571644940     0.5738591691
Bq         3.8679800093    -0.3076731470     0.5807294388
Bq         3.8661344841    -0.2581818000     0.5875997086
Bq         3.8642889588    -0.2086904530     0.5944699784
Bq         3.8624434335    -0.1591991060     0.6013402482
Bq         3.8605979083    -0.1097077589     0.6082105180
Bq         3.8587523830    -0.0602164119     0.6150807877
Bq         3.8569068577    -0.0107250649     0.6219510575
Bq         3.8550613325     0.0387662821     0.6288213273
Bq         3.8532158072     0.0882576291     0.6356915971
Bq         3.8513702819     0.1377489761     0.6425618669
Bq         3.8495247567     0.1872403232     0.6494321366
Bq         3.8476792314     0.2367316702     0.6563024064
Bq         3.8458337061     0.2862230172     0.6631726762
Bq         3.8439881809     0.3357143642     0.6700429460
Bq         3.8421426556     0.3852057112     0.6769132158
Bq         3.8402971303     0.4346970583     0.6837834855
Bq         3.8384516051     0.4841884053     0.6906537553
Bq         3.8366060798     0.5336797523     0.6975240251
Bq         3.8347605545     0.5831710993     0.7043942949
Bq         3.8329150293     0.6326624463     0.7112645647
Bq         3.8310695040     0.6821537933     0.7181348344
Bq         3.8292239787     0.7316451404     0.7250051042
Bq         3.8273784535     0.7811364874     0.7318753740
Bq         3.8255329282     0.8306278344     0.7387456438
Bq         3.8236874029     0.8801191814     0.7456159136
Bq         3.8218418777     0.9296105284     0.7524861833
Bq         3.8199963524     0.9791018754     0.7593564531
Bq         3.8181508271     1.0285932225     0.7662267229
Bq         3.8163053019     1.0780845695     0.7730969927
Bq         3.8144597766     1.1275759165     0.7799672624
Bq         3.8126142513     1.1770672635     0.7868375322
Bq         3.8107687260     1.2265586105     0.7937078020
Bq         3.8089232008     1.2760499576     0.8005780718
Bq         3.8070776755     1.3255413046     0.8074483416
Bq         3.8052321502     1.3750326516     0.8143186113
Bq         3.8033866250     1.4245239986     0.8211888811
Bq         3.8015410997     1.4740153456     0.8280591509
Bq         3.7996955744     1.5235066926     0.8349294207
Bq         3.7978500492     1.5729980397     0.8417996905
Bq         3.7960045239     1.6224893867     0.8486699602
Bq         3.7941589986     1.6719807337     0.8555402300
Bq         3.7923134734     1.7214720807     0.8624104998
Bq         3.7904679481     1.7709634277     0.8692807696
Bq         3.7886224228     1.8204547748     0.8761510394
Bq         3.7867768976     1.8699461218     0.8830213091
Bq         3.7849313723     1.9194374688     0.8898915789
Bq         3.7830858470     1.9689288158     0.8967618487
Bq         3.7812403218     2.0184201628     0.9036321185
Bq         3.7793947965     2.0679115098     0.9105023883
Bq         3.7775492712     2.1174028569     0.9173726580
Bq         3.7757037460     2.1668942039     0.9242429278
Bq         3.7738582207     2.2163855509     0.9311131976
Bq         4.0066988725    -2.7327491509     0.2570576105
Bq         4.0048533472    -2.6832578039     0.2639278803
Bq         4.0030078220    -2.6337664569     0.2707981501
Bq         4.0011622967    -2.5842751098     0.2776684199
Bq         3.9993167714    -2.5347837628     0.2845386897
Bq         3.9974712461    -2.4852924158     0.2914089594
Bq         3.9956257209    -2.4358010688     0.2982792292
Bq         3.9937801956    -2.3863097218     0.3051494990
Bq         3.9919346703    -2.3368183748     0.3120197688
Bq         3.9900891451    -2.2873270277     0.3188900386
Bq         3.9882436198    -2.2378356807     0.3257603083
Bq         3.9863980945    -2.1883443337     0.3326305781
Bq         3.9845525693    -2.1388529867     0.3395008479
Bq         3.9827070440    -2.0893616397     0.3463711177
Bq         3.9808615187    -2.0398702926     0.3532413875
Bq         3.9790159935    -1.9903789456     0.3601116572

1
2
3
4
5
6
7
8
9
10
11
12
13
14
15
16
17
18
19
20
21
22
23
24
25
26
27
28
29
30
31
32
33
34
35
36
37
38
39
40
41
42
43
44
45
46
47
48
49
50
51
52
53
54
55
56
57
58
59
60
61
62
63
64
65
66
67
68
69
70
71
72
73
74
75
76
77
78
79
80
81
82
83
84
85
86
87
88
89
90
91
92
93
94
95
96
97
98
99
100
101
102
103
104
105
106
107
108
109
110
111
112
113
114
115
116
117
118
119
120
121
122
123
124
125
126
127
128
129
130
131
132
133
134
135
136
137
138
139
140
141
142
143
144
145
146
147
148
149
150
151
152
153
154
155
156
157
158
159
160
161
162
163
164
165
166
167
168
169
170
171
172
173
174
175
176
177
178
179
180
181
182
183
184
185
186
187
188
189
190
191
192
193
194
195
196
197
198
199
200
201
202
203
204
205
206
207
208
209
210
211
212
213
214
215
216
217
218
219
220
221
222
223
224
225
226
227
228
229
230
231
232
233
234
235
236

