%nproc=8
%mem=1000MB
# rb3lyp/6-311+g** NMR geom=connectivity

Title

0 1
C    -4.0500558   -0.5771862    0.8136712
H    -5.0263804   -1.0082727    1.0024760
C    -3.9381552    0.6617804    0.2400876
H    -4.8252424    1.2338890   -0.0111295
C    -2.6768410    1.2433246    0.0057578
C    -1.4974121    0.5051527    0.2848253
C    -1.6508332   -0.7338728    0.9404026
H    -0.7713646   -1.2730967    1.2633753
C    -2.8898548   -1.2624035    1.1994307
H    -2.9683706   -2.2124563    1.7152676
C    -2.5773185    2.5963696   -0.4192930
H    -3.4870728    3.1412239   -0.6474055
C    -1.3741895    3.2147896   -0.4364030
H    -1.2997315    4.2742019   -0.6578144
C    -0.1719488    2.4994090   -0.1734588
C    -0.2043917    1.1018437    0.0192689
C     1.0513491    3.2042560   -0.0676222
H     1.0427344    4.2819499   -0.1896997
C     2.1942091    2.5487446    0.2579577
H     3.1168527    3.0912848    0.4334727
C     2.2216473    1.1336562    0.2934990
C     1.0486931    0.3945528    0.0302412
C     3.4483363    0.4614633    0.5573939
H     4.3095794    1.0606054    0.8334846
C     3.5427346   -0.8855926    0.4749463
H     4.4731467   -1.3939704    0.7038822
C     2.4490052   -1.6474447   -0.0196319
C     1.2150704   -1.0057258   -0.3013573
C     0.2531113   -1.7434440   -1.0216591
H    -0.6541356   -1.2535051   -1.3462847
C     0.4494193   -3.0628597   -1.3413779
H    -0.3083162   -3.5944309   -1.9054060
C     1.6251726   -3.7207967   -0.9552541
H     1.7670048   -4.7687404   -1.1927019
C     2.6109872   -3.0144177   -0.3183050
H     3.5525612   -3.4902813   -0.0646367
Bq         0.3843956818     2.4130190089    -0.0633961449
Bq         0.3847517488     2.4629586166    -0.0658269473
Bq         0.3851078158     2.5128982243    -0.0682577496
Bq         0.3854638827     2.5628378320    -0.0706885520
Bq         0.3858199497     2.6127774397    -0.0731193544
Bq         0.3861760167     2.6627170474    -0.0755501568
Bq         0.3865320836     2.7126566551    -0.0779809592
Bq         0.3868881506     2.7625962627    -0.0804117616
Bq         0.3872442176     2.8125358704    -0.0828425639
Bq         0.3876002846     2.8624754781    -0.0852733663
Bq         0.3879563515     2.9124150858    -0.0877041687
Bq         0.3883124185     2.9623546935    -0.0901349711
Bq         0.3886684855     3.0122943012    -0.0925657735
Bq         0.3890245524     3.0622339089    -0.0949965759
Bq         0.3893806194     3.1121735166    -0.0974273782
Bq         0.3897366864     3.1621131243    -0.0998581806
Bq         0.3900927534     3.2120527319    -0.1022889830
Bq         0.3904488203     3.2619923396    -0.1047197854
Bq         0.3908048873     3.3119319473    -0.1071505878
Bq         0.3911609543     3.3618715550    -0.1095813902
Bq         0.3915170212     3.4118111627    -0.1120121925
Bq         0.3918730882     3.4617507704    -0.1144429949
Bq         0.3922291552     3.5116903781    -0.1168737973
Bq         0.3925852221     3.5616299858    -0.1193045997
Bq         0.3929412891     3.6115695935    -0.1217354021
Bq         0.3932973561     3.6615092011    -0.1241662045
Bq         0.3936534231     3.7114488088    -0.1265970068
Bq         0.3940094900     3.7613884165    -0.1290278092
Bq         0.3943655570     3.8113280242    -0.1314586116
Bq         0.3947216240     3.8612676319    -0.1338894140
Bq         0.3950776909     3.9112072396    -0.1363202164
Bq         0.3954337579     3.9611468473    -0.1387510188
Bq         0.3957898249     4.0110864550    -0.1411818211
Bq         0.3961458919     4.0610260627    -0.1436126235
Bq         0.3965019588     4.1109656703    -0.1460434259
Bq         0.3968580258     4.1609052780    -0.1484742283
Bq         0.3972140928     4.2108448857    -0.1509050307
Bq         0.3975701597     4.2607844934    -0.1533358331
Bq         0.3979262267     4.3107241011    -0.1557666354
Bq         0.4117915916    -0.6832366678     0.0945603323
Bq         0.4121476585    -0.6332970601     0.0921295300
Bq         0.4125037255    -0.5833574524     0.0896987276
Bq         0.4128597925    -0.5334178447     0.0872679252
Bq         0.4132158594    -0.4834782370     0.0848371228
Bq         0.4135719264    -0.4335386293     0.0824063204
Bq         0.4139279934    -0.3835990216     0.0799755180
Bq         0.4142840604    -0.3336594139     0.0775447157
Bq         0.4146401273    -0.2837198063     0.0751139133
Bq         0.4149961943    -0.2337801986     0.0726831109
Bq         0.4153522613    -0.1838405909     0.0702523085
Bq         0.4157083282    -0.1339009832     0.0678215061
Bq         0.4160643952    -0.0839613755     0.0653907037
Bq         0.4164204622    -0.0340217678     0.0629599014
Bq         0.4167765292     0.0159178399     0.0605290990
Bq         0.4171325961     0.0658574476     0.0580982966
Bq         0.4174886631     0.1157970553     0.0556674942
Bq         0.4178447301     0.1657366629     0.0532366918
Bq         0.4182007970     0.2156762706     0.0508058894
Bq         0.4185568640     0.2656158783     0.0483750871
Bq         0.4189129310     0.3155554860     0.0459442847
Bq         0.4192689979     0.3654950937     0.0435134823
Bq         0.4196250649     0.4154347014     0.0410826799
Bq         0.4199811319     0.4653743091     0.0386518775
Bq         0.4203371989     0.5153139168     0.0362210751
Bq         0.4206932658     0.5652535245     0.0337902728
Bq         0.4210493328     0.6151931321     0.0313594704
Bq         0.4214053998     0.6651327398     0.0289286680
Bq         0.4217614667     0.7150723475     0.0264978656
Bq         0.4221175337     0.7650119552     0.0240670632
Bq         0.4224736007     0.8149515629     0.0216362608
Bq         0.4228296677     0.8648911706     0.0192054585
Bq         0.4231857346     0.9148307783     0.0167746561
Bq         0.4235418016     0.9647703860     0.0143438537
Bq         0.4238978686     1.0147099936     0.0119130513
Bq         0.4242539355     1.0646496013     0.0094822489
Bq         0.4246100025     1.1145892090     0.0070514465
Bq         0.4249660695     1.1645288167     0.0046206442
Bq         0.4253221365     1.2144684244     0.0021898418
Bq         0.4256782034     1.2644080321    -0.0002409606
Bq         0.4260342704     1.3143476398    -0.0026717630
Bq         0.4263903374     1.3642872475    -0.0051025654
Bq         0.4267464043     1.4142268552    -0.0075333678
Bq         0.4271024713     1.4641664628    -0.0099641701
Bq         0.4274585383     1.5141060705    -0.0123949725
Bq         0.4278146052     1.5640456782    -0.0148257749
Bq         0.4281706722     1.6139852859    -0.0172565773
Bq         0.4285267392     1.6639248936    -0.0196873797
Bq         0.4288828062     1.7138645013    -0.0221181821
Bq         0.4292388731     1.7638041090    -0.0245489844
Bq         0.4295949401     1.8137437167    -0.0269797868
Bq         0.4299510071     1.8636833244    -0.0294105892
Bq         0.4303070740     1.9136229320    -0.0318413916
Bq         0.4306631410     1.9635625397    -0.0342721940
Bq         0.4310192080     2.0135021474    -0.0367029964
Bq         0.4313752750     2.0634417551    -0.0391337987
Bq         0.4317313419     2.1133813628    -0.0415646011
Bq         0.4320874089     2.1633209705    -0.0439954035
Bq         0.4324434759     2.2132605782    -0.0464262059
Bq         0.4327995428     2.2632001859    -0.0488570083
Bq         0.4331556098     2.3131397936    -0.0512878106
Bq         0.4335116768     2.3630794012    -0.0537186130
Bq         0.4338677438     2.4130190089    -0.0561494154
Bq         0.4342238107     2.4629586166    -0.0585802178
Bq         0.4345798777     2.5128982243    -0.0610110202
Bq         0.4349359447     2.5628378320    -0.0634418226
Bq         0.4352920116     2.6127774397    -0.0658726249
Bq         0.4356480786     2.6627170474    -0.0683034273
Bq         0.4360041456     2.7126566551    -0.0707342297
Bq         0.4363602125     2.7625962627    -0.0731650321
Bq         0.4367162795     2.8125358704    -0.0755958345
Bq         0.4370723465     2.8624754781    -0.0780266369
Bq         0.4374284135     2.9124150858    -0.0804574392
Bq         0.4377844804     2.9623546935    -0.0828882416
Bq         0.4381405474     3.0122943012    -0.0853190440
Bq         0.4384966144     3.0622339089    -0.0877498464
Bq         0.4388526813     3.1121735166    -0.0901806488
Bq         0.4392087483     3.1621131243    -0.0926114512
Bq         0.4395648153     3.2120527319    -0.0950422535
Bq         0.4399208823     3.2619923396    -0.0974730559
Bq         0.4402769492     3.3119319473    -0.0999038583
Bq         0.4406330162     3.3618715550    -0.1023346607
Bq         0.4409890832     3.4118111627    -0.1047654631
Bq         0.4413451501     3.4617507704    -0.1071962655
Bq         0.4417012171     3.5116903781    -0.1096270678
Bq         0.4420572841     3.5616299858    -0.1120578702
Bq         0.4424133511     3.6115695935    -0.1144886726
Bq         0.4427694180     3.6615092011    -0.1169194750
Bq         0.4431254850     3.7114488088    -0.1193502774
Bq         0.4434815520     3.7613884165    -0.1217810798
Bq         0.4438376189     3.8113280242    -0.1242118821
Bq         0.4441936859     3.8612676319    -0.1266426845
Bq         0.4445497529     3.9112072396    -0.1290734869
Bq         0.4449058199     3.9611468473    -0.1315042893
Bq         0.4452618868     4.0110864550    -0.1339350917
Bq         0.4456179538     4.0610260627    -0.1363658941
Bq         0.4459740208     4.1109656703    -0.1387966964
Bq         0.4463300877     4.1609052780    -0.1412274988
Bq         0.4466861547     4.2108448857    -0.1436583012
Bq         0.4470422217     4.2607844934    -0.1460891036
Bq         0.4473982886     4.3107241011    -0.1485199060
Bq         0.4612636535    -0.6832366678     0.1018070618
Bq         0.4616197205    -0.6332970601     0.0993762594
Bq         0.4619757874    -0.5833574524     0.0969454570
Bq         0.4623318544    -0.5334178447     0.0945146547
Bq         0.4626879214    -0.4834782370     0.0920838523
Bq         0.4630439884    -0.4335386293     0.0896530499
Bq         0.4634000553    -0.3835990216     0.0872222475
Bq         0.4637561223    -0.3336594139     0.0847914451
Bq         0.4641121893    -0.2837198063     0.0823606427
Bq         0.4644682562    -0.2337801986     0.0799298404
Bq         0.4648243232    -0.1838405909     0.0774990380
Bq         0.4651803902    -0.1339009832     0.0750682356
Bq         0.4655364571    -0.0839613755     0.0726374332
Bq         0.4658925241    -0.0340217678     0.0702066308
Bq         0.4662485911     0.0159178399     0.0677758284
Bq         0.4666046581     0.0658574476     0.0653450261
Bq         0.4669607250     0.1157970553     0.0629142237
Bq         0.4673167920     0.1657366629     0.0604834213
Bq         0.4676728590     0.2156762706     0.0580526189
Bq         0.4680289259     0.2656158783     0.0556218165
Bq         0.4683849929     0.3155554860     0.0531910141
Bq         0.4687410599     0.3654950937     0.0507602118
Bq         0.4690971269     0.4154347014     0.0483294094
Bq         0.4694531938     0.4653743091     0.0458986070
Bq         0.4698092608     0.5153139168     0.0434678046
Bq         0.4701653278     0.5652535245     0.0410370022
Bq         0.4705213947     0.6151931321     0.0386061998
Bq         0.4708774617     0.6651327398     0.0361753975
Bq         0.4712335287     0.7150723475     0.0337445951
Bq         0.4715895957     0.7650119552     0.0313137927
Bq         0.4719456626     0.8149515629     0.0288829903
Bq         0.4723017296     0.8648911706     0.0264521879
Bq         0.4726577966     0.9148307783     0.0240213855
Bq         0.4730138635     0.9647703860     0.0215905832
Bq         0.4733699305     1.0147099936     0.0191597808
Bq         0.4737259975     1.0646496013     0.0167289784
Bq         0.4740820644     1.1145892090     0.0142981760
Bq         0.4744381314     1.1645288167     0.0118673736
Bq         0.4747941984     1.2144684244     0.0094365712
Bq         0.4751502654     1.2644080321     0.0070057689
Bq         0.4755063323     1.3143476398     0.0045749665
Bq         0.4758623993     1.3642872475     0.0021441641
Bq         0.4762184663     1.4142268552    -0.0002866383
Bq         0.4765745332     1.4641664628    -0.0027174407
Bq         0.4769306002     1.5141060705    -0.0051482431
Bq         0.4772866672     1.5640456782    -0.0075790454
Bq         0.4776427342     1.6139852859    -0.0100098478
Bq         0.4779988011     1.6639248936    -0.0124406502
Bq         0.4783548681     1.7138645013    -0.0148714526
Bq         0.4787109351     1.7638041090    -0.0173022550
Bq         0.4790670020     1.8137437167    -0.0197330574
Bq         0.4794230690     1.8636833244    -0.0221638597
Bq         0.4797791360     1.9136229320    -0.0245946621
Bq         0.4801352030     1.9635625397    -0.0270254645
Bq         0.4804912699     2.0135021474    -0.0294562669
Bq         0.4808473369     2.0634417551    -0.0318870693
Bq         0.4812034039     2.1133813628    -0.0343178717
Bq         0.4815594708     2.1633209705    -0.0367486740
Bq         0.4819155378     2.2132605782    -0.0391794764
Bq         0.4822716048     2.2632001859    -0.0416102788

1
2
3
4
5
6
7
8
9
10
11
12
13
14
15
16
17
18
19
20
21
22
23
24
25
26
27
28
29
30
31
32
33
34
35
36
37
38
39
40
41
42
43
44
45
46
47
48
49
50
51
52
53
54
55
56
57
58
59
60
61
62
63
64
65
66
67
68
69
70
71
72
73
74
75
76
77
78
79
80
81
82
83
84
85
86
87
88
89
90
91
92
93
94
95
96
97
98
99
100
101
102
103
104
105
106
107
108
109
110
111
112
113
114
115
116
117
118
119
120
121
122
123
124
125
126
127
128
129
130
131
132
133
134
135
136
137
138
139
140
141
142
143
144
145
146
147
148
149
150
151
152
153
154
155
156
157
158
159
160
161
162
163
164
165
166
167
168
169
170
171
172
173
174
175
176
177
178
179
180
181
182
183
184
185
186
187
188
189
190
191
192
193
194
195
196
197
198
199
200
201
202
203
204
205
206
207
208
209
210
211
212
213
214
215
216
217
218
219
220
221
222
223
224
225
226
227
228
229
230
231
232
233
234
235
236

