%nproc=8
%mem=1000MB
# rb3lyp/6-311+g** NMR geom=connectivity

Title

0 1
C    -4.0500558   -0.5771862    0.8136712
H    -5.0263804   -1.0082727    1.0024760
C    -3.9381552    0.6617804    0.2400876
H    -4.8252424    1.2338890   -0.0111295
C    -2.6768410    1.2433246    0.0057578
C    -1.4974121    0.5051527    0.2848253
C    -1.6508332   -0.7338728    0.9404026
H    -0.7713646   -1.2730967    1.2633753
C    -2.8898548   -1.2624035    1.1994307
H    -2.9683706   -2.2124563    1.7152676
C    -2.5773185    2.5963696   -0.4192930
H    -3.4870728    3.1412239   -0.6474055
C    -1.3741895    3.2147896   -0.4364030
H    -1.2997315    4.2742019   -0.6578144
C    -0.1719488    2.4994090   -0.1734588
C    -0.2043917    1.1018437    0.0192689
C     1.0513491    3.2042560   -0.0676222
H     1.0427344    4.2819499   -0.1896997
C     2.1942091    2.5487446    0.2579577
H     3.1168527    3.0912848    0.4334727
C     2.2216473    1.1336562    0.2934990
C     1.0486931    0.3945528    0.0302412
C     3.4483363    0.4614633    0.5573939
H     4.3095794    1.0606054    0.8334846
C     3.5427346   -0.8855926    0.4749463
H     4.4731467   -1.3939704    0.7038822
C     2.4490052   -1.6474447   -0.0196319
C     1.2150704   -1.0057258   -0.3013573
C     0.2531113   -1.7434440   -1.0216591
H    -0.6541356   -1.2535051   -1.3462847
C     0.4494193   -3.0628597   -1.3413779
H    -0.3083162   -3.5944309   -1.9054060
C     1.6251726   -3.7207967   -0.9552541
H     1.7670048   -4.7687404   -1.1927019
C     2.6109872   -3.0144177   -0.3183050
H     3.5525612   -3.4902813   -0.0646367
Bq         1.2684835912     1.5141060705     0.1107994283
Bq         1.2688396582     1.5640456782     0.1083686259
Bq         1.2691957251     1.6139852859     0.1059378235
Bq         1.2695517921     1.6639248936     0.1035070211
Bq         1.2699078591     1.7138645013     0.1010762187
Bq         1.2702639260     1.7638041090     0.0986454163
Bq         1.2706199930     1.8137437167     0.0962146140
Bq         1.2709760600     1.8636833244     0.0937838116
Bq         1.2713321270     1.9136229320     0.0913530092
Bq         1.2716881939     1.9635625397     0.0889222068
Bq         1.2720442609     2.0135021474     0.0864914044
Bq         1.2724003279     2.0634417551     0.0840606020
Bq         1.2727563948     2.1133813628     0.0816297997
Bq         1.2731124618     2.1633209705     0.0791989973
Bq         1.2734685288     2.2132605782     0.0767681949
Bq         1.2738245957     2.2632001859     0.0743373925
Bq         1.2741806627     2.3131397936     0.0719065901
Bq         1.2745367297     2.3630794012     0.0694757877
Bq         1.2748927967     2.4130190089     0.0670449854
Bq         1.2752488636     2.4629586166     0.0646141830
Bq         1.2756049306     2.5128982243     0.0621833806
Bq         1.2759609976     2.5628378320     0.0597525782
Bq         1.2763170645     2.6127774397     0.0573217758
Bq         1.2766731315     2.6627170474     0.0548909734
Bq         1.2770291985     2.7126566551     0.0524601711
Bq         1.2773852655     2.7625962627     0.0500293687
Bq         1.2777413324     2.8125358704     0.0475985663
Bq         1.2780973994     2.8624754781     0.0451677639
Bq         1.2784534664     2.9124150858     0.0427369615
Bq         1.2788095333     2.9623546935     0.0403061591
Bq         1.2791656003     3.0122943012     0.0378753568
Bq         1.2795216673     3.0622339089     0.0354445544
Bq         1.2798777343     3.1121735166     0.0330137520
Bq         1.2802338012     3.1621131243     0.0305829496
Bq         1.2805898682     3.2120527319     0.0281521472
Bq         1.2809459352     3.2619923396     0.0257213448
Bq         1.2813020021     3.3119319473     0.0232905425
Bq         1.2816580691     3.3618715550     0.0208597401
Bq         1.2820141361     3.4118111627     0.0184289377
Bq         1.2823702030     3.4617507704     0.0159981353
Bq         1.2827262700     3.5116903781     0.0135673329
Bq         1.2830823370     3.5616299858     0.0111365305
Bq         1.2834384040     3.6115695935     0.0087057282
Bq         1.2837944709     3.6615092011     0.0062749258
Bq         1.2841505379     3.7114488088     0.0038441234
Bq         1.2845066049     3.7613884165     0.0014133210
Bq         1.2848626718     3.8113280242    -0.0010174814
Bq         1.2852187388     3.8612676319    -0.0034482838
Bq         1.2855748058     3.9112072396    -0.0058790861
Bq         1.2859308728     3.9611468473    -0.0083098885
Bq         1.2862869397     4.0110864550    -0.0107406909
Bq         1.2866430067     4.0610260627    -0.0131714933
Bq         1.2869990737     4.1109656703    -0.0156022957
Bq         1.2873551406     4.1609052780    -0.0180330981
Bq         1.2877112076     4.2108448857    -0.0204639004
Bq         1.2880672746     4.2607844934    -0.0228947028
Bq         1.2884233416     4.3107241011    -0.0253255052
Bq         1.3022887064    -0.6832366678     0.2250014626
Bq         1.3026447734    -0.6332970601     0.2225706602
Bq         1.3030008403    -0.5833574524     0.2201398578
Bq         1.3033569073    -0.5334178447     0.2177090554
Bq         1.3037129743    -0.4834782370     0.2152782530
Bq         1.3040690413    -0.4335386293     0.2128474507
Bq         1.3044251082    -0.3835990216     0.2104166483
Bq         1.3047811752    -0.3336594139     0.2079858459
Bq         1.3051372422    -0.2837198063     0.2055550435
Bq         1.3054933091    -0.2337801986     0.2031242411
Bq         1.3058493761    -0.1838405909     0.2006934387
Bq         1.3062054431    -0.1339009832     0.1982626364
Bq         1.3065615101    -0.0839613755     0.1958318340
Bq         1.3069175770    -0.0340217678     0.1934010316
Bq         1.3072736440     0.0159178399     0.1909702292
Bq         1.3076297110     0.0658574476     0.1885394268
Bq         1.3079857779     0.1157970553     0.1861086244
Bq         1.3083418449     0.1657366629     0.1836778221
Bq         1.3086979119     0.2156762706     0.1812470197
Bq         1.3090539789     0.2656158783     0.1788162173
Bq         1.3094100458     0.3155554860     0.1763854149
Bq         1.3097661128     0.3654950937     0.1739546125
Bq         1.3101221798     0.4154347014     0.1715238101
Bq         1.3104782467     0.4653743091     0.1690930078
Bq         1.3108343137     0.5153139168     0.1666622054
Bq         1.3111903807     0.5652535245     0.1642314030
Bq         1.3115464476     0.6151931321     0.1618006006
Bq         1.3119025146     0.6651327398     0.1593697982
Bq         1.3122585816     0.7150723475     0.1569389958
Bq         1.3126146486     0.7650119552     0.1545081935
Bq         1.3129707155     0.8149515629     0.1520773911
Bq         1.3133267825     0.8648911706     0.1496465887
Bq         1.3136828495     0.9148307783     0.1472157863
Bq         1.3140389164     0.9647703860     0.1447849839
Bq         1.3143949834     1.0147099936     0.1423541815
Bq         1.3147510504     1.0646496013     0.1399233792
Bq         1.3151071174     1.1145892090     0.1374925768
Bq         1.3154631843     1.1645288167     0.1350617744
Bq         1.3158192513     1.2144684244     0.1326309720
Bq         1.3161753183     1.2644080321     0.1302001696
Bq         1.3165313852     1.3143476398     0.1277693672
Bq         1.3168874522     1.3642872475     0.1253385649
Bq         1.3172435192     1.4142268552     0.1229077625
Bq         1.3175995862     1.4641664628     0.1204769601
Bq         1.3179556531     1.5141060705     0.1180461577
Bq         1.3183117201     1.5640456782     0.1156153553
Bq         1.3186677871     1.6139852859     0.1131845529
Bq         1.3190238540     1.6639248936     0.1107537506
Bq         1.3193799210     1.7138645013     0.1083229482
Bq         1.3197359880     1.7638041090     0.1058921458
Bq         1.3200920549     1.8137437167     0.1034613434
Bq         1.3204481219     1.8636833244     0.1010305410
Bq         1.3208041889     1.9136229320     0.0985997386
Bq         1.3211602559     1.9635625397     0.0961689363
Bq         1.3215163228     2.0135021474     0.0937381339
Bq         1.3218723898     2.0634417551     0.0913073315
Bq         1.3222284568     2.1133813628     0.0888765291
Bq         1.3225845237     2.1633209705     0.0864457267
Bq         1.3229405907     2.2132605782     0.0840149243
Bq         1.3232966577     2.2632001859     0.0815841220
Bq         1.3236527247     2.3131397936     0.0791533196
Bq         1.3240087916     2.3630794012     0.0767225172
Bq         1.3243648586     2.4130190089     0.0742917148
Bq         1.3247209256     2.4629586166     0.0718609124
Bq         1.3250769925     2.5128982243     0.0694301100
Bq         1.3254330595     2.5628378320     0.0669993077
Bq         1.3257891265     2.6127774397     0.0645685053
Bq         1.3261451935     2.6627170474     0.0621377029
Bq         1.3265012604     2.7126566551     0.0597069005
Bq         1.3268573274     2.7625962627     0.0572760981
Bq         1.3272133944     2.8125358704     0.0548452957
Bq         1.3275694613     2.8624754781     0.0524144934
Bq         1.3279255283     2.9124150858     0.0499836910
Bq         1.3282815953     2.9623546935     0.0475528886
Bq         1.3286376622     3.0122943012     0.0451220862
Bq         1.3289937292     3.0622339089     0.0426912838
Bq         1.3293497962     3.1121735166     0.0402604814
Bq         1.3297058632     3.1621131243     0.0378296791
Bq         1.3300619301     3.2120527319     0.0353988767
Bq         1.3304179971     3.2619923396     0.0329680743
Bq         1.3307740641     3.3119319473     0.0305372719
Bq         1.3311301310     3.3618715550     0.0281064695
Bq         1.3314861980     3.4118111627     0.0256756671
Bq         1.3318422650     3.4617507704     0.0232448648
Bq         1.3321983320     3.5116903781     0.0208140624
Bq         1.3325543989     3.5616299858     0.0183832600
Bq         1.3329104659     3.6115695935     0.0159524576
Bq         1.3332665329     3.6615092011     0.0135216552
Bq         1.3336225998     3.7114488088     0.0110908528
Bq         1.3339786668     3.7613884165     0.0086600505
Bq         1.3343347338     3.8113280242     0.0062292481
Bq         1.3346908008     3.8612676319     0.0037984457
Bq         1.3350468677     3.9112072396     0.0013676433
Bq         1.3354029347     3.9611468473    -0.0010631591
Bq         1.3357590017     4.0110864550    -0.0034939615
Bq         1.3361150686     4.0610260627    -0.0059247638
Bq         1.3364711356     4.1109656703    -0.0083555662
Bq         1.3368272026     4.1609052780    -0.0107863686
Bq         1.3371832695     4.2108448857    -0.0132171710
Bq         1.3375393365     4.2607844934    -0.0156479734
Bq         1.3378954035     4.3107241011    -0.0180787758
Bq         1.3517607683    -0.6832366678     0.2322481920
Bq         1.3521168353    -0.6332970601     0.2298173896
Bq         1.3524729023    -0.5833574524     0.2273865873
Bq         1.3528289693    -0.5334178447     0.2249557849
Bq         1.3531850362    -0.4834782370     0.2225249825
Bq         1.3535411032    -0.4335386293     0.2200941801
Bq         1.3538971702    -0.3835990216     0.2176633777
Bq         1.3542532371    -0.3336594139     0.2152325753
Bq         1.3546093041    -0.2837198063     0.2128017730
Bq         1.3549653711    -0.2337801986     0.2103709706
Bq         1.3553214381    -0.1838405909     0.2079401682
Bq         1.3556775050    -0.1339009832     0.2055093658
Bq         1.3560335720    -0.0839613755     0.2030785634
Bq         1.3563896390    -0.0340217678     0.2006477610
Bq         1.3567457059     0.0159178399     0.1982169587
Bq         1.3571017729     0.0658574476     0.1957861563
Bq         1.3574578399     0.1157970553     0.1933553539
Bq         1.3578139068     0.1657366629     0.1909245515
Bq         1.3581699738     0.2156762706     0.1884937491
Bq         1.3585260408     0.2656158783     0.1860629467
Bq         1.3588821078     0.3155554860     0.1836321444
Bq         1.3592381747     0.3654950937     0.1812013420
Bq         1.3595942417     0.4154347014     0.1787705396
Bq         1.3599503087     0.4653743091     0.1763397372
Bq         1.3603063756     0.5153139168     0.1739089348
Bq         1.3606624426     0.5652535245     0.1714781324
Bq         1.3610185096     0.6151931321     0.1690473301
Bq         1.3613745766     0.6651327398     0.1666165277
Bq         1.3617306435     0.7150723475     0.1641857253
Bq         1.3620867105     0.7650119552     0.1617549229
Bq         1.3624427775     0.8149515629     0.1593241205
Bq         1.3627988444     0.8648911706     0.1568933181
Bq         1.3631549114     0.9148307783     0.1544625158
Bq         1.3635109784     0.9647703860     0.1520317134
Bq         1.3638670454     1.0147099936     0.1496009110
Bq         1.3642231123     1.0646496013     0.1471701086
Bq         1.3645791793     1.1145892090     0.1447393062
Bq         1.3649352463     1.1645288167     0.1423085038
Bq         1.3652913132     1.2144684244     0.1398777015
Bq         1.3656473802     1.2644080321     0.1374468991
Bq         1.3660034472     1.3143476398     0.1350160967
Bq         1.3663595141     1.3642872475     0.1325852943

1
2
3
4
5
6
7
8
9
10
11
12
13
14
15
16
17
18
19
20
21
22
23
24
25
26
27
28
29
30
31
32
33
34
35
36
37
38
39
40
41
42
43
44
45
46
47
48
49
50
51
52
53
54
55
56
57
58
59
60
61
62
63
64
65
66
67
68
69
70
71
72
73
74
75
76
77
78
79
80
81
82
83
84
85
86
87
88
89
90
91
92
93
94
95
96
97
98
99
100
101
102
103
104
105
106
107
108
109
110
111
112
113
114
115
116
117
118
119
120
121
122
123
124
125
126
127
128
129
130
131
132
133
134
135
136
137
138
139
140
141
142
143
144
145
146
147
148
149
150
151
152
153
154
155
156
157
158
159
160
161
162
163
164
165
166
167
168
169
170
171
172
173
174
175
176
177
178
179
180
181
182
183
184
185
186
187
188
189
190
191
192
193
194
195
196
197
198
199
200
201
202
203
204
205
206
207
208
209
210
211
212
213
214
215
216
217
218
219
220
221
222
223
224
225
226
227
228
229
230
231
232
233
234
235
236

