%nproc=8
%mem=1000MB
# rb3lyp/6-311+g** NMR geom=connectivity

Title

0 1
C    -4.0500558   -0.5771862    0.8136712
H    -5.0263804   -1.0082727    1.0024760
C    -3.9381552    0.6617804    0.2400876
H    -4.8252424    1.2338890   -0.0111295
C    -2.6768410    1.2433246    0.0057578
C    -1.4974121    0.5051527    0.2848253
C    -1.6508332   -0.7338728    0.9404026
H    -0.7713646   -1.2730967    1.2633753
C    -2.8898548   -1.2624035    1.1994307
H    -2.9683706   -2.2124563    1.7152676
C    -2.5773185    2.5963696   -0.4192930
H    -3.4870728    3.1412239   -0.6474055
C    -1.3741895    3.2147896   -0.4364030
H    -1.2997315    4.2742019   -0.6578144
C    -0.1719488    2.4994090   -0.1734588
C    -0.2043917    1.1018437    0.0192689
C     1.0513491    3.2042560   -0.0676222
H     1.0427344    4.2819499   -0.1896997
C     2.1942091    2.5487446    0.2579577
H     3.1168527    3.0912848    0.4334727
C     2.2216473    1.1336562    0.2934990
C     1.0486931    0.3945528    0.0302412
C     3.4483363    0.4614633    0.5573939
H     4.3095794    1.0606054    0.8334846
C     3.5427346   -0.8855926    0.4749463
H     4.4731467   -1.3939704    0.7038822
C     2.4490052   -1.6474447   -0.0196319
C     1.2150704   -1.0057258   -0.3013573
C     0.2531113   -1.7434440   -1.0216591
H    -0.6541356   -1.2535051   -1.3462847
C     0.4494193   -3.0628597   -1.3413779
H    -0.3083162   -3.5944309   -1.9054060
C     1.6251726   -3.7207967   -0.9552541
H     1.7670048   -4.7687404   -1.1927019
C     2.6109872   -3.0144177   -0.3183050
H     3.5525612   -3.4902813   -0.0646367
Bq         0.7759378166    -1.7874235371    -0.7829950668
Bq         0.7704345799    -1.7392270457    -0.7708784416
Bq         0.7649313432    -1.6910305543    -0.7587618164
Bq         0.7594281065    -1.6428340630    -0.7466451911
Bq         0.7539248698    -1.5946375716    -0.7345285659
Bq         0.7484216331    -1.5464410803    -0.7224119407
Bq         0.7429183964    -1.4982445889    -0.7102953155
Bq         0.7374151598    -1.4500480976    -0.6981786902
Bq         0.7319119231    -1.4018516062    -0.6860620650
Bq         0.7264086864    -1.3536551149    -0.6739454398
Bq         0.7209054497    -1.3054586235    -0.6618288145
Bq         0.7154022130    -1.2572621321    -0.6497121893
Bq         0.7098989763    -1.2090656408    -0.6375955641
Bq         0.7043957396    -1.1608691494    -0.6254789389
Bq         0.6988925030    -1.1126726581    -0.6133623136
Bq         0.6933892663    -1.0644761667    -0.6012456884
Bq         0.6878860296    -1.0162796754    -0.5891290632
Bq         0.6823827929    -0.9680831840    -0.5770124379
Bq         0.6768795562    -0.9198866927    -0.5648958127
Bq         0.6713763195    -0.8716902013    -0.5527791875
Bq         0.6658730828    -0.8234937099    -0.5406625623
Bq         0.6603698462    -0.7752972186    -0.5285459370
Bq         0.6548666095    -0.7271007272    -0.5164293118
Bq         0.6493633728    -0.6789042359    -0.5043126866
Bq         0.6438601361    -0.6307077445    -0.4921960613
Bq         0.6383568994    -0.5825112532    -0.4800794361
Bq         0.6328536627    -0.5343147618    -0.4679628109
Bq         0.6273504260    -0.4861182704    -0.4558461857
Bq         0.6218471894    -0.4379217791    -0.4437295604
Bq         0.6163439527    -0.3897252877    -0.4316129352
Bq         0.6108407160    -0.3415287964    -0.4194963100
Bq         0.6053374793    -0.2933323050    -0.4073796847
Bq         0.5998342426    -0.2451358137    -0.3952630595
Bq         0.5943310059    -0.1969393223    -0.3831464343
Bq         0.5888277692    -0.1487428310    -0.3710298091
Bq         0.5833245326    -0.1005463396    -0.3589131838
Bq         0.5778212959    -0.0523498482    -0.3467965586
Bq         0.5723180592    -0.0041533569    -0.3346799334
Bq         0.5668148225     0.0440431345    -0.3225633081
Bq         1.1626629278    -4.7756060011    -1.5135491372
Bq         1.1571596911    -4.7274095098    -1.5014325120
Bq         1.1516564544    -4.6792130184    -1.4893158868
Bq         1.1461532177    -4.6310165271    -1.4771992615
Bq         1.1406499810    -4.5828200357    -1.4650826363
Bq         1.1351467443    -4.5346235444    -1.4529660111
Bq         1.1296435076    -4.4864270530    -1.4408493858
Bq         1.1241402710    -4.4382305616    -1.4287327606
Bq         1.1186370343    -4.3900340703    -1.4166161354
Bq         1.1131337976    -4.3418375789    -1.4044995102
Bq         1.1076305609    -4.2936410876    -1.3923828849
Bq         1.1021273242    -4.2454445962    -1.3802662597
Bq         1.0966240875    -4.1972481049    -1.3681496345
Bq         1.0911208508    -4.1490516135    -1.3560330092
Bq         1.0856176142    -4.1008551222    -1.3439163840
Bq         1.0801143775    -4.0526586308    -1.3317997588
Bq         1.0746111408    -4.0044621394    -1.3196831336
Bq         1.0691079041    -3.9562656481    -1.3075665083
Bq         1.0636046674    -3.9080691567    -1.2954498831
Bq         1.0581014307    -3.8598726654    -1.2833332579
Bq         1.0525981940    -3.8116761740    -1.2712166326
Bq         1.0470949573    -3.7634796827    -1.2591000074
Bq         1.0415917207    -3.7152831913    -1.2469833822
Bq         1.0360884840    -3.6670866999    -1.2348667570
Bq         1.0305852473    -3.6188902086    -1.2227501317
Bq         1.0250820106    -3.5706937172    -1.2106335065
Bq         1.0195787739    -3.5224972259    -1.1985168813
Bq         1.0140755372    -3.4743007345    -1.1864002560
Bq         1.0085723005    -3.4261042432    -1.1742836308
Bq         1.0030690639    -3.3779077518    -1.1621670056
Bq         0.9975658272    -3.3297112605    -1.1500503804
Bq         0.9920625905    -3.2815147691    -1.1379337551
Bq         0.9865593538    -3.2333182777    -1.1258171299
Bq         0.9810561171    -3.1851217864    -1.1137005047
Bq         0.9755528804    -3.1369252950    -1.1015838794
Bq         0.9700496437    -3.0887288037    -1.0894672542
Bq         0.9645464071    -3.0405323123    -1.0773506290
Bq         0.9590431704    -2.9923358210    -1.0652340037
Bq         0.9535399337    -2.9441393296    -1.0531173785
Bq         0.9480366970    -2.8959428383    -1.0410007533
Bq         0.9425334603    -2.8477463469    -1.0288841281
Bq         0.9370302236    -2.7995498555    -1.0167675028
Bq         0.9315269869    -2.7513533642    -1.0046508776
Bq         0.9260237503    -2.7031568728    -0.9925342524
Bq         0.9205205136    -2.6549603815    -0.9804176271
Bq         0.9150172769    -2.6067638901    -0.9683010019
Bq         0.9095140402    -2.5585673988    -0.9561843767
Bq         0.9040108035    -2.5103709074    -0.9440677515
Bq         0.8985075668    -2.4621744160    -0.9319511262
Bq         0.8930043301    -2.4139779247    -0.9198345010
Bq         0.8875010935    -2.3657814333    -0.9077178758
Bq         0.8819978568    -2.3175849420    -0.8956012505
Bq         0.8764946201    -2.2693884506    -0.8834846253
Bq         0.8709913834    -2.2211919593    -0.8713680001
Bq         0.8654881467    -2.1729954679    -0.8592513749
Bq         0.8599849100    -2.1247989766    -0.8471347496
Bq         0.8544816733    -2.0766024852    -0.8350181244
Bq         0.8489784366    -2.0284059938    -0.8229014992
Bq         0.8434752000    -1.9802095025    -0.8107848739
Bq         0.8379719633    -1.9320130111    -0.7986682487
Bq         0.8324687266    -1.8838165198    -0.7865516235
Bq         0.8269654899    -1.8356200284    -0.7744349983
Bq         0.8214622532    -1.7874235371    -0.7623183730
Bq         0.8159590165    -1.7392270457    -0.7502017478
Bq         0.8104557798    -1.6910305543    -0.7380851226
Bq         0.8049525432    -1.6428340630    -0.7259684973
Bq         0.7994493065    -1.5946375716    -0.7138518721
Bq         0.7939460698    -1.5464410803    -0.7017352469
Bq         0.7884428331    -1.4982445889    -0.6896186216
Bq         0.7829395964    -1.4500480976    -0.6775019964
Bq         0.7774363597    -1.4018516062    -0.6653853712
Bq         0.7719331230    -1.3536551149    -0.6532687460
Bq         0.7664298864    -1.3054586235    -0.6411521207
Bq         0.7609266497    -1.2572621321    -0.6290354955
Bq         0.7554234130    -1.2090656408    -0.6169188703
Bq         0.7499201763    -1.1608691494    -0.6048022450
Bq         0.7444169396    -1.1126726581    -0.5926856198
Bq         0.7389137029    -1.0644761667    -0.5805689946
Bq         0.7334104662    -1.0162796754    -0.5684523694
Bq         0.7279072296    -0.9680831840    -0.5563357441
Bq         0.7224039929    -0.9198866927    -0.5442191189
Bq         0.7169007562    -0.8716902013    -0.5321024937
Bq         0.7113975195    -0.8234937099    -0.5199858684
Bq         0.7058942828    -0.7752972186    -0.5078692432
Bq         0.7003910461    -0.7271007272    -0.4957526180
Bq         0.6948878094    -0.6789042359    -0.4836359928
Bq         0.6893845728    -0.6307077445    -0.4715193675
Bq         0.6838813361    -0.5825112532    -0.4594027423
Bq         0.6783780994    -0.5343147618    -0.4472861171
Bq         0.6728748627    -0.4861182704    -0.4351694918
Bq         0.6673716260    -0.4379217791    -0.4230528666
Bq         0.6618683893    -0.3897252877    -0.4109362414
Bq         0.6563651526    -0.3415287964    -0.3988196162
Bq         0.6508619160    -0.2933323050    -0.3867029909
Bq         0.6453586793    -0.2451358137    -0.3745863657
Bq         0.6398554426    -0.1969393223    -0.3624697405
Bq         0.6343522059    -0.1487428310    -0.3503531152
Bq         0.6288489692    -0.1005463396    -0.3382364900
Bq         0.6233457325    -0.0523498482    -0.3261198648
Bq         0.6178424958    -0.0041533569    -0.3140032395
Bq         0.6123392591     0.0440431345    -0.3018866143
Bq         1.2081873644    -4.7756060011    -1.4928724434
Bq         1.2026841277    -4.7274095098    -1.4807558182
Bq         1.1971808910    -4.6792130184    -1.4686391929
Bq         1.1916776544    -4.6310165271    -1.4565225677
Bq         1.1861744177    -4.5828200357    -1.4444059425
Bq         1.1806711810    -4.5346235444    -1.4322893173
Bq         1.1751679443    -4.4864270530    -1.4201726920
Bq         1.1696647076    -4.4382305616    -1.4080560668
Bq         1.1641614709    -4.3900340703    -1.3959394416
Bq         1.1586582342    -4.3418375789    -1.3838228163
Bq         1.1531549976    -4.2936410876    -1.3717061911
Bq         1.1476517609    -4.2454445962    -1.3595895659
Bq         1.1421485242    -4.1972481049    -1.3474729407
Bq         1.1366452875    -4.1490516135    -1.3353563154
Bq         1.1311420508    -4.1008551222    -1.3232396902
Bq         1.1256388141    -4.0526586308    -1.3111230650
Bq         1.1201355774    -4.0044621394    -1.2990064397
Bq         1.1146323407    -3.9562656481    -1.2868898145
Bq         1.1091291041    -3.9080691567    -1.2747731893
Bq         1.1036258674    -3.8598726654    -1.2626565641
Bq         1.0981226307    -3.8116761740    -1.2505399388
Bq         1.0926193940    -3.7634796827    -1.2384233136
Bq         1.0871161573    -3.7152831913    -1.2263066884
Bq         1.0816129206    -3.6670866999    -1.2141900631
Bq         1.0761096839    -3.6188902086    -1.2020734379
Bq         1.0706064473    -3.5706937172    -1.1899568127
Bq         1.0651032106    -3.5224972259    -1.1778401875
Bq         1.0595999739    -3.4743007345    -1.1657235622
Bq         1.0540967372    -3.4261042432    -1.1536069370
Bq         1.0485935005    -3.3779077518    -1.1414903118
Bq         1.0430902638    -3.3297112605    -1.1293736865
Bq         1.0375870271    -3.2815147691    -1.1172570613
Bq         1.0320837905    -3.2333182777    -1.1051404361
Bq         1.0265805538    -3.1851217864    -1.0930238108
Bq         1.0210773171    -3.1369252950    -1.0809071856
Bq         1.0155740804    -3.0887288037    -1.0687905604
Bq         1.0100708437    -3.0405323123    -1.0566739352
Bq         1.0045676070    -2.9923358210    -1.0445573099
Bq         0.9990643703    -2.9441393296    -1.0324406847
Bq         0.9935611337    -2.8959428383    -1.0203240595
Bq         0.9880578970    -2.8477463469    -1.0082074342
Bq         0.9825546603    -2.7995498555    -0.9960908090
Bq         0.9770514236    -2.7513533642    -0.9839741838
Bq         0.9715481869    -2.7031568728    -0.9718575586
Bq         0.9660449502    -2.6549603815    -0.9597409333
Bq         0.9605417135    -2.6067638901    -0.9476243081
Bq         0.9550384769    -2.5585673988    -0.9355076829
Bq         0.9495352402    -2.5103709074    -0.9233910576
Bq         0.9440320035    -2.4621744160    -0.9112744324
Bq         0.9385287668    -2.4139779247    -0.8991578072
Bq         0.9330255301    -2.3657814333    -0.8870411820
Bq         0.9275222934    -2.3175849420    -0.8749245567
Bq         0.9220190567    -2.2693884506    -0.8628079315
Bq         0.9165158201    -2.2211919593    -0.8506913063
Bq         0.9110125834    -2.1729954679    -0.8385746810
Bq         0.9055093467    -2.1247989766    -0.8264580558
Bq         0.9000061100    -2.0766024852    -0.8143414306
Bq         0.8945028733    -2.0284059938    -0.8022248054
Bq         0.8889996366    -1.9802095025    -0.7901081801
Bq         0.8834963999    -1.9320130111    -0.7779915549

1
2
3
4
5
6
7
8
9
10
11
12
13
14
15
16
17
18
19
20
21
22
23
24
25
26
27
28
29
30
31
32
33
34
35
36
37
38
39
40
41
42
43
44
45
46
47
48
49
50
51
52
53
54
55
56
57
58
59
60
61
62
63
64
65
66
67
68
69
70
71
72
73
74
75
76
77
78
79
80
81
82
83
84
85
86
87
88
89
90
91
92
93
94
95
96
97
98
99
100
101
102
103
104
105
106
107
108
109
110
111
112
113
114
115
116
117
118
119
120
121
122
123
124
125
126
127
128
129
130
131
132
133
134
135
136
137
138
139
140
141
142
143
144
145
146
147
148
149
150
151
152
153
154
155
156
157
158
159
160
161
162
163
164
165
166
167
168
169
170
171
172
173
174
175
176
177
178
179
180
181
182
183
184
185
186
187
188
189
190
191
192
193
194
195
196
197
198
199
200
201
202
203
204
205
206
207
208
209
210
211
212
213
214
215
216
217
218
219
220
221
222
223
224
225
226
227
228
229
230
231
232
233
234
235
236

