%nproc=8
%mem=1000MB
# rb3lyp/6-311+g** NMR geom=connectivity

Title

0 1
C    -4.0500558   -0.5771862    0.8136712
H    -5.0263804   -1.0082727    1.0024760
C    -3.9381552    0.6617804    0.2400876
H    -4.8252424    1.2338890   -0.0111295
C    -2.6768410    1.2433246    0.0057578
C    -1.4974121    0.5051527    0.2848253
C    -1.6508332   -0.7338728    0.9404026
H    -0.7713646   -1.2730967    1.2633753
C    -2.8898548   -1.2624035    1.1994307
H    -2.9683706   -2.2124563    1.7152676
C    -2.5773185    2.5963696   -0.4192930
H    -3.4870728    3.1412239   -0.6474055
C    -1.3741895    3.2147896   -0.4364030
H    -1.2997315    4.2742019   -0.6578144
C    -0.1719488    2.4994090   -0.1734588
C    -0.2043917    1.1018437    0.0192689
C     1.0513491    3.2042560   -0.0676222
H     1.0427344    4.2819499   -0.1896997
C     2.1942091    2.5487446    0.2579577
H     3.1168527    3.0912848    0.4334727
C     2.2216473    1.1336562    0.2934990
C     1.0486931    0.3945528    0.0302412
C     3.4483363    0.4614633    0.5573939
H     4.3095794    1.0606054    0.8334846
C     3.5427346   -0.8855926    0.4749463
H     4.4731467   -1.3939704    0.7038822
C     2.4490052   -1.6474447   -0.0196319
C     1.2150704   -1.0057258   -0.3013573
C     0.2531113   -1.7434440   -1.0216591
H    -0.6541356   -1.2535051   -1.3462847
C     0.4494193   -3.0628597   -1.3413779
H    -0.3083162   -3.5944309   -1.9054060
C     1.6251726   -3.7207967   -0.9552541
H     1.7670048   -4.7687404   -1.1927019
C     2.6109872   -3.0144177   -0.3183050
H     3.5525612   -3.4902813   -0.0646367
Bq         0.0667457455     1.9194374688    -0.1089055200
Bq         0.0649002202     1.9689288158    -0.1020352502
Bq         0.0630546950     2.0184201628    -0.0951649804
Bq         0.0612091697     2.0679115098    -0.0882947106
Bq         0.0593636444     2.1174028569    -0.0814244408
Bq         0.0575181192     2.1668942039    -0.0745541711
Bq         0.0556725939     2.2163855509    -0.0676839013
Bq         0.2885132457    -2.7327491509    -0.7417394883
Bq         0.2866677204    -2.6832578039    -0.7348692186
Bq         0.2848221952    -2.6337664569    -0.7279989488
Bq         0.2829766699    -2.5842751098    -0.7211286790
Bq         0.2811311446    -2.5347837628    -0.7142584092
Bq         0.2792856194    -2.4852924158    -0.7073881394
Bq         0.2774400941    -2.4358010688    -0.7005178697
Bq         0.2755945688    -2.3863097218    -0.6936475999
Bq         0.2737490436    -2.3368183748    -0.6867773301
Bq         0.2719035183    -2.2873270277    -0.6799070603
Bq         0.2700579930    -2.2378356807    -0.6730367905
Bq         0.2682124677    -2.1883443337    -0.6661665208
Bq         0.2663669425    -2.1388529867    -0.6592962510
Bq         0.2645214172    -2.0893616397    -0.6524259812
Bq         0.2626758919    -2.0398702926    -0.6455557114
Bq         0.2608303667    -1.9903789456    -0.6386854416
Bq         0.2589848414    -1.9408875986    -0.6318151719
Bq         0.2571393161    -1.8913962516    -0.6249449021
Bq         0.2552937909    -1.8419049046    -0.6180746323
Bq         0.2534482656    -1.7924135576    -0.6112043625
Bq         0.2516027403    -1.7429222105    -0.6043340927
Bq         0.2497572151    -1.6934308635    -0.5974638230
Bq         0.2479116898    -1.6439395165    -0.5905935532
Bq         0.2460661645    -1.5944481695    -0.5837232834
Bq         0.2442206393    -1.5449568225    -0.5768530136
Bq         0.2423751140    -1.4954654754    -0.5699827438
Bq         0.2405295887    -1.4459741284    -0.5631124741
Bq         0.2386840635    -1.3964827814    -0.5562422043
Bq         0.2368385382    -1.3469914344    -0.5493719345
Bq         0.2349930129    -1.2975000874    -0.5425016647
Bq         0.2331474877    -1.2480087404    -0.5356313949
Bq         0.2313019624    -1.1985173933    -0.5287611252
Bq         0.2294564371    -1.1490260463    -0.5218908554
Bq         0.2276109119    -1.0995346993    -0.5150205856
Bq         0.2257653866    -1.0500433523    -0.5081503158
Bq         0.2239198613    -1.0005520053    -0.5012800460
Bq         0.2220743361    -0.9510606583    -0.4944097763
Bq         0.2202288108    -0.9015693112    -0.4875395065
Bq         0.2183832855    -0.8520779642    -0.4806692367
Bq         0.2165377603    -0.8025866172    -0.4737989669
Bq         0.2146922350    -0.7530952702    -0.4669286972
Bq         0.2128467097    -0.7036039232    -0.4600584274
Bq         0.2110011845    -0.6541125761    -0.4531881576
Bq         0.2091556592    -0.6046212291    -0.4463178878
Bq         0.2073101339    -0.5551298821    -0.4394476180
Bq         0.2054646086    -0.5056385351    -0.4325773483
Bq         0.2036190834    -0.4561471881    -0.4257070785
Bq         0.2017735581    -0.4066558411    -0.4188368087
Bq         0.1999280328    -0.3571644940    -0.4119665389
Bq         0.1980825076    -0.3076731470    -0.4050962691
Bq         0.1962369823    -0.2581818000    -0.3982259994
Bq         0.1943914570    -0.2086904530    -0.3913557296
Bq         0.1925459318    -0.1591991060    -0.3844854598
Bq         0.1907004065    -0.1097077589    -0.3776151900
Bq         0.1888548812    -0.0602164119    -0.3707449202
Bq         0.1870093560    -0.0107250649    -0.3638746505
Bq         0.1851638307     0.0387662821    -0.3570043807
Bq         0.1833183054     0.0882576291    -0.3501341109
Bq         0.1814727802     0.1377489761    -0.3432638411
Bq         0.1796272549     0.1872403232    -0.3363935713
Bq         0.1777817296     0.2367316702    -0.3295233016
Bq         0.1759362044     0.2862230172    -0.3226530318
Bq         0.1740906791     0.3357143642    -0.3157827620
Bq         0.1722451538     0.3852057112    -0.3089124922
Bq         0.1703996286     0.4346970583    -0.3020422224
Bq         0.1685541033     0.4841884053    -0.2951719527
Bq         0.1667085780     0.5336797523    -0.2883016829
Bq         0.1648630528     0.5831710993    -0.2814314131
Bq         0.1630175275     0.6326624463    -0.2745611433
Bq         0.1611720022     0.6821537933    -0.2676908735
Bq         0.1593264770     0.7316451404    -0.2608206038
Bq         0.1574809517     0.7811364874    -0.2539503340
Bq         0.1556354264     0.8306278344    -0.2470800642
Bq         0.1537899012     0.8801191814    -0.2402097944
Bq         0.1519443759     0.9296105284    -0.2333395247
Bq         0.1500988506     0.9791018754    -0.2264692549
Bq         0.1482533253     1.0285932225    -0.2195989851
Bq         0.1464078001     1.0780845695    -0.2127287153
Bq         0.1445622748     1.1275759165    -0.2058584455
Bq         0.1427167495     1.1770672635    -0.1989881758
Bq         0.1408712243     1.2265586105    -0.1921179060
Bq         0.1390256990     1.2760499576    -0.1852476362
Bq         0.1371801737     1.3255413046    -0.1783773664
Bq         0.1353346485     1.3750326516    -0.1715070966
Bq         0.1334891232     1.4245239986    -0.1646368269
Bq         0.1316435979     1.4740153456    -0.1577665571
Bq         0.1297980727     1.5235066926    -0.1508962873
Bq         0.1279525474     1.5729980397    -0.1440260175
Bq         0.1261070221     1.6224893867    -0.1371557477
Bq         0.1242614969     1.6719807337    -0.1302854780
Bq         0.1224159716     1.7214720807    -0.1234152082
Bq         0.1205704463     1.7709634277    -0.1165449384
Bq         0.1187249211     1.8204547748    -0.1096746686
Bq         0.1168793958     1.8699461218    -0.1028043988
Bq         0.1150338705     1.9194374688    -0.0959341291
Bq         0.1131883453     1.9689288158    -0.0890638593
Bq         0.1113428200     2.0184201628    -0.0821935895
Bq         0.1094972947     2.0679115098    -0.0753233197
Bq         0.1076517695     2.1174028569    -0.0684530499
Bq         0.1058062442     2.1668942039    -0.0615827802
Bq         0.1039607189     2.2163855509    -0.0547125104
Bq         0.3368013707    -2.7327491509    -0.7287680974
Bq         0.3349558454    -2.6832578039    -0.7218978277
Bq         0.3331103202    -2.6337664569    -0.7150275579
Bq         0.3312647949    -2.5842751098    -0.7081572881
Bq         0.3294192696    -2.5347837628    -0.7012870183
Bq         0.3275737444    -2.4852924158    -0.6944167485
Bq         0.3257282191    -2.4358010688    -0.6875464788
Bq         0.3238826938    -2.3863097218    -0.6806762090
Bq         0.3220371686    -2.3368183748    -0.6738059392
Bq         0.3201916433    -2.2873270277    -0.6669356694
Bq         0.3183461180    -2.2378356807    -0.6600653996
Bq         0.3165005928    -2.1883443337    -0.6531951299
Bq         0.3146550675    -2.1388529867    -0.6463248601
Bq         0.3128095422    -2.0893616397    -0.6394545903
Bq         0.3109640170    -2.0398702926    -0.6325843205
Bq         0.3091184917    -1.9903789456    -0.6257140507
Bq         0.3072729664    -1.9408875986    -0.6188437810
Bq         0.3054274412    -1.8913962516    -0.6119735112
Bq         0.3035819159    -1.8419049046    -0.6051032414
Bq         0.3017363906    -1.7924135576    -0.5982329716
Bq         0.2998908654    -1.7429222105    -0.5913627018
Bq         0.2980453401    -1.6934308635    -0.5844924321
Bq         0.2961998148    -1.6439395165    -0.5776221623
Bq         0.2943542896    -1.5944481695    -0.5707518925
Bq         0.2925087643    -1.5449568225    -0.5638816227
Bq         0.2906632390    -1.4954654754    -0.5570113529
Bq         0.2888177138    -1.4459741284    -0.5501410832
Bq         0.2869721885    -1.3964827814    -0.5432708134
Bq         0.2851266632    -1.3469914344    -0.5364005436
Bq         0.2832811380    -1.2975000874    -0.5295302738
Bq         0.2814356127    -1.2480087404    -0.5226600041
Bq         0.2795900874    -1.1985173933    -0.5157897343
Bq         0.2777445622    -1.1490260463    -0.5089194645
Bq         0.2758990369    -1.0995346993    -0.5020491947
Bq         0.2740535116    -1.0500433523    -0.4951789249
Bq         0.2722079863    -1.0005520053    -0.4883086552
Bq         0.2703624611    -0.9510606583    -0.4814383854
Bq         0.2685169358    -0.9015693112    -0.4745681156
Bq         0.2666714105    -0.8520779642    -0.4676978458
Bq         0.2648258853    -0.8025866172    -0.4608275760
Bq         0.2629803600    -0.7530952702    -0.4539573063
Bq         0.2611348347    -0.7036039232    -0.4470870365
Bq         0.2592893095    -0.6541125761    -0.4402167667
Bq         0.2574437842    -0.6046212291    -0.4333464969
Bq         0.2555982589    -0.5551298821    -0.4264762271
Bq         0.2537527337    -0.5056385351    -0.4196059574
Bq         0.2519072084    -0.4561471881    -0.4127356876
Bq         0.2500616831    -0.4066558411    -0.4058654178
Bq         0.2482161579    -0.3571644940    -0.3989951480
Bq         0.2463706326    -0.3076731470    -0.3921248782
Bq         0.2445251073    -0.2581818000    -0.3852546085
Bq         0.2426795821    -0.2086904530    -0.3783843387
Bq         0.2408340568    -0.1591991060    -0.3715140689
Bq         0.2389885315    -0.1097077589    -0.3646437991
Bq         0.2371430063    -0.0602164119    -0.3577735293
Bq         0.2352974810    -0.0107250649    -0.3509032596
Bq         0.2334519557     0.0387662821    -0.3440329898
Bq         0.2316064305     0.0882576291    -0.3371627200
Bq         0.2297609052     0.1377489761    -0.3302924502
Bq         0.2279153799     0.1872403232    -0.3234221804
Bq         0.2260698547     0.2367316702    -0.3165519107
Bq         0.2242243294     0.2862230172    -0.3096816409
Bq         0.2223788041     0.3357143642    -0.3028113711
Bq         0.2205332789     0.3852057112    -0.2959411013
Bq         0.2186877536     0.4346970583    -0.2890708316
Bq         0.2168422283     0.4841884053    -0.2822005618
Bq         0.2149967030     0.5336797523    -0.2753302920
Bq         0.2131511778     0.5831710993    -0.2684600222
Bq         0.2113056525     0.6326624463    -0.2615897524
Bq         0.2094601272     0.6821537933    -0.2547194827
Bq         0.2076146020     0.7316451404    -0.2478492129
Bq         0.2057690767     0.7811364874    -0.2409789431
Bq         0.2039235514     0.8306278344    -0.2341086733
Bq         0.2020780262     0.8801191814    -0.2272384035
Bq         0.2002325009     0.9296105284    -0.2203681338
Bq         0.1983869756     0.9791018754    -0.2134978640
Bq         0.1965414504     1.0285932225    -0.2066275942
Bq         0.1946959251     1.0780845695    -0.1997573244
Bq         0.1928503998     1.1275759165    -0.1928870546
Bq         0.1910048746     1.1770672635    -0.1860167849
Bq         0.1891593493     1.2265586105    -0.1791465151
Bq         0.1873138240     1.2760499576    -0.1722762453
Bq         0.1854682988     1.3255413046    -0.1654059755
Bq         0.1836227735     1.3750326516    -0.1585357057
Bq         0.1817772482     1.4245239986    -0.1516654360
Bq         0.1799317230     1.4740153456    -0.1447951662
Bq         0.1780861977     1.5235066926    -0.1379248964
Bq         0.1762406724     1.5729980397    -0.1310546266
Bq         0.1743951472     1.6224893867    -0.1241843568
Bq         0.1725496219     1.6719807337    -0.1173140871
Bq         0.1707040966     1.7214720807    -0.1104438173
Bq         0.1688585714     1.7709634277    -0.1035735475

1
2
3
4
5
6
7
8
9
10
11
12
13
14
15
16
17
18
19
20
21
22
23
24
25
26
27
28
29
30
31
32
33
34
35
36
37
38
39
40
41
42
43
44
45
46
47
48
49
50
51
52
53
54
55
56
57
58
59
60
61
62
63
64
65
66
67
68
69
70
71
72
73
74
75
76
77
78
79
80
81
82
83
84
85
86
87
88
89
90
91
92
93
94
95
96
97
98
99
100
101
102
103
104
105
106
107
108
109
110
111
112
113
114
115
116
117
118
119
120
121
122
123
124
125
126
127
128
129
130
131
132
133
134
135
136
137
138
139
140
141
142
143
144
145
146
147
148
149
150
151
152
153
154
155
156
157
158
159
160
161
162
163
164
165
166
167
168
169
170
171
172
173
174
175
176
177
178
179
180
181
182
183
184
185
186
187
188
189
190
191
192
193
194
195
196
197
198
199
200
201
202
203
204
205
206
207
208
209
210
211
212
213
214
215
216
217
218
219
220
221
222
223
224
225
226
227
228
229
230
231
232
233
234
235
236

