%nproc=8
%mem=1000MB
# rb3lyp/6-311+g** NMR geom=connectivity

Title

0 1
C    -4.0500558   -0.5771862    0.8136712
H    -5.0263804   -1.0082727    1.0024760
C    -3.9381552    0.6617804    0.2400876
H    -4.8252424    1.2338890   -0.0111295
C    -2.6768410    1.2433246    0.0057578
C    -1.4974121    0.5051527    0.2848253
C    -1.6508332   -0.7338728    0.9404026
H    -0.7713646   -1.2730967    1.2633753
C    -2.8898548   -1.2624035    1.1994307
H    -2.9683706   -2.2124563    1.7152676
C    -2.5773185    2.5963696   -0.4192930
H    -3.4870728    3.1412239   -0.6474055
C    -1.3741895    3.2147896   -0.4364030
H    -1.2997315    4.2742019   -0.6578144
C    -0.1719488    2.4994090   -0.1734588
C    -0.2043917    1.1018437    0.0192689
C     1.0513491    3.2042560   -0.0676222
H     1.0427344    4.2819499   -0.1896997
C     2.1942091    2.5487446    0.2579577
H     3.1168527    3.0912848    0.4334727
C     2.2216473    1.1336562    0.2934990
C     1.0486931    0.3945528    0.0302412
C     3.4483363    0.4614633    0.5573939
H     4.3095794    1.0606054    0.8334846
C     3.5427346   -0.8855926    0.4749463
H     4.4731467   -1.3939704    0.7038822
C     2.4490052   -1.6474447   -0.0196319
C     1.2150704   -1.0057258   -0.3013573
C     0.2531113   -1.7434440   -1.0216591
H    -0.6541356   -1.2535051   -1.3462847
C     0.4494193   -3.0628597   -1.3413779
H    -0.3083162   -3.5944309   -1.9054060
C     1.6251726   -3.7207967   -0.9552541
H     1.7670048   -4.7687404   -1.1927019
C     2.6109872   -3.0144177   -0.3183050
H     3.5525612   -3.4902813   -0.0646367
Bq         1.5707552542     0.4346970583     0.0741281135
Bq         1.5689097290     0.4841884053     0.0809983833
Bq         1.5670642037     0.5336797523     0.0878686531
Bq         1.5652186784     0.5831710993     0.0947389228
Bq         1.5633731532     0.6326624463     0.1016091926
Bq         1.5615276279     0.6821537933     0.1084794624
Bq         1.5596821026     0.7316451404     0.1153497322
Bq         1.5578365774     0.7811364874     0.1222200020
Bq         1.5559910521     0.8306278344     0.1290902717
Bq         1.5541455268     0.8801191814     0.1359605415
Bq         1.5523000016     0.9296105284     0.1428308113
Bq         1.5504544763     0.9791018754     0.1497010811
Bq         1.5486089510     1.0285932225     0.1565713508
Bq         1.5467634258     1.0780845695     0.1634416206
Bq         1.5449179005     1.1275759165     0.1703118904
Bq         1.5430723752     1.1770672635     0.1771821602
Bq         1.5412268500     1.2265586105     0.1840524300
Bq         1.5393813247     1.2760499576     0.1909226997
Bq         1.5375357994     1.3255413046     0.1977929695
Bq         1.5356902742     1.3750326516     0.2046632393
Bq         1.5338447489     1.4245239986     0.2115335091
Bq         1.5319992236     1.4740153456     0.2184037789
Bq         1.5301536983     1.5235066926     0.2252740486
Bq         1.5283081731     1.5729980397     0.2321443184
Bq         1.5264626478     1.6224893867     0.2390145882
Bq         1.5246171225     1.6719807337     0.2458848580
Bq         1.5227715973     1.7214720807     0.2527551278
Bq         1.5209260720     1.7709634277     0.2596253975
Bq         1.5190805467     1.8204547748     0.2664956673
Bq         1.5172350215     1.8699461218     0.2733659371
Bq         1.5153894962     1.9194374688     0.2802362069
Bq         1.5135439709     1.9689288158     0.2871064767
Bq         1.5116984457     2.0184201628     0.2939767464
Bq         1.5098529204     2.0679115098     0.3008470162
Bq         1.5080073951     2.1174028569     0.3077172860
Bq         1.5061618699     2.1668942039     0.3145875558
Bq         1.5043163446     2.2163855509     0.3214578256
Bq         1.7371569964    -2.7327491509    -0.3525977615
Bq         1.7353114711    -2.6832578039    -0.3457274917
Bq         1.7334659459    -2.6337664569    -0.3388572219
Bq         1.7316204206    -2.5842751098    -0.3319869522
Bq         1.7297748953    -2.5347837628    -0.3251166824
Bq         1.7279293701    -2.4852924158    -0.3182464126
Bq         1.7260838448    -2.4358010688    -0.3113761428
Bq         1.7242383195    -2.3863097218    -0.3045058730
Bq         1.7223927943    -2.3368183748    -0.2976356033
Bq         1.7205472690    -2.2873270277    -0.2907653335
Bq         1.7187017437    -2.2378356807    -0.2838950637
Bq         1.7168562184    -2.1883443337    -0.2770247939
Bq         1.7150106932    -2.1388529867    -0.2701545241
Bq         1.7131651679    -2.0893616397    -0.2632842544
Bq         1.7113196426    -2.0398702926    -0.2564139846
Bq         1.7094741174    -1.9903789456    -0.2495437148
Bq         1.7076285921    -1.9408875986    -0.2426734450
Bq         1.7057830668    -1.8913962516    -0.2358031752
Bq         1.7039375416    -1.8419049046    -0.2289329055
Bq         1.7020920163    -1.7924135576    -0.2220626357
Bq         1.7002464910    -1.7429222105    -0.2151923659
Bq         1.6984009658    -1.6934308635    -0.2083220961
Bq         1.6965554405    -1.6439395165    -0.2014518263
Bq         1.6947099152    -1.5944481695    -0.1945815566
Bq         1.6928643900    -1.5449568225    -0.1877112868
Bq         1.6910188647    -1.4954654754    -0.1808410170
Bq         1.6891733394    -1.4459741284    -0.1739707472
Bq         1.6873278142    -1.3964827814    -0.1671004775
Bq         1.6854822889    -1.3469914344    -0.1602302077
Bq         1.6836367636    -1.2975000874    -0.1533599379
Bq         1.6817912384    -1.2480087404    -0.1464896681
Bq         1.6799457131    -1.1985173933    -0.1396193983
Bq         1.6781001878    -1.1490260463    -0.1327491286
Bq         1.6762546626    -1.0995346993    -0.1258788588
Bq         1.6744091373    -1.0500433523    -0.1190085890
Bq         1.6725636120    -1.0005520053    -0.1121383192
Bq         1.6707180868    -0.9510606583    -0.1052680494
Bq         1.6688725615    -0.9015693112    -0.0983977797
Bq         1.6670270362    -0.8520779642    -0.0915275099
Bq         1.6651815110    -0.8025866172    -0.0846572401
Bq         1.6633359857    -0.7530952702    -0.0777869703
Bq         1.6614904604    -0.7036039232    -0.0709167005
Bq         1.6596449351    -0.6541125761    -0.0640464308
Bq         1.6577994099    -0.6046212291    -0.0571761610
Bq         1.6559538846    -0.5551298821    -0.0503058912
Bq         1.6541083593    -0.5056385351    -0.0434356214
Bq         1.6522628341    -0.4561471881    -0.0365653516
Bq         1.6504173088    -0.4066558411    -0.0296950819
Bq         1.6485717835    -0.3571644940    -0.0228248121
Bq         1.6467262583    -0.3076731470    -0.0159545423
Bq         1.6448807330    -0.2581818000    -0.0090842725
Bq         1.6430352077    -0.2086904530    -0.0022140027
Bq         1.6411896825    -0.1591991060     0.0046562670
Bq         1.6393441572    -0.1097077589     0.0115265368
Bq         1.6374986319    -0.0602164119     0.0183968066
Bq         1.6356531067    -0.0107250649     0.0252670764
Bq         1.6338075814     0.0387662821     0.0321373462
Bq         1.6319620561     0.0882576291     0.0390076159
Bq         1.6301165309     0.1377489761     0.0458778857
Bq         1.6282710056     0.1872403232     0.0527481555
Bq         1.6264254803     0.2367316702     0.0596184253
Bq         1.6245799551     0.2862230172     0.0664886951
Bq         1.6227344298     0.3357143642     0.0733589648
Bq         1.6208889045     0.3852057112     0.0802292346
Bq         1.6190433793     0.4346970583     0.0870995044
Bq         1.6171978540     0.4841884053     0.0939697742
Bq         1.6153523287     0.5336797523     0.1008400439
Bq         1.6135068035     0.5831710993     0.1077103137
Bq         1.6116612782     0.6326624463     0.1145805835
Bq         1.6098157529     0.6821537933     0.1214508533
Bq         1.6079702277     0.7316451404     0.1283211231
Bq         1.6061247024     0.7811364874     0.1351913928
Bq         1.6042791771     0.8306278344     0.1420616626
Bq         1.6024336519     0.8801191814     0.1489319324
Bq         1.6005881266     0.9296105284     0.1558022022
Bq         1.5987426013     0.9791018754     0.1626724720
Bq         1.5968970760     1.0285932225     0.1695427417
Bq         1.5950515508     1.0780845695     0.1764130115
Bq         1.5932060255     1.1275759165     0.1832832813
Bq         1.5913605002     1.1770672635     0.1901535511
Bq         1.5895149750     1.2265586105     0.1970238209
Bq         1.5876694497     1.2760499576     0.2038940906
Bq         1.5858239244     1.3255413046     0.2107643604
Bq         1.5839783992     1.3750326516     0.2176346302
Bq         1.5821328739     1.4245239986     0.2245049000
Bq         1.5802873486     1.4740153456     0.2313751698
Bq         1.5784418234     1.5235066926     0.2382454395
Bq         1.5765962981     1.5729980397     0.2451157093
Bq         1.5747507728     1.6224893867     0.2519859791
Bq         1.5729052476     1.6719807337     0.2588562489
Bq         1.5710597223     1.7214720807     0.2657265187
Bq         1.5692141970     1.7709634277     0.2725967884
Bq         1.5673686718     1.8204547748     0.2794670582
Bq         1.5655231465     1.8699461218     0.2863373280
Bq         1.5636776212     1.9194374688     0.2932075978
Bq         1.5618320960     1.9689288158     0.3000778676
Bq         1.5599865707     2.0184201628     0.3069481373
Bq         1.5581410454     2.0679115098     0.3138184071
Bq         1.5562955202     2.1174028569     0.3206886769
Bq         1.5544499949     2.1668942039     0.3275589467
Bq         1.5526044696     2.2163855509     0.3344292164
Bq         1.7854451214    -2.7327491509    -0.3396263706
Bq         1.7835995961    -2.6832578039    -0.3327561008
Bq         1.7817540709    -2.6337664569    -0.3258858310
Bq         1.7799085456    -2.5842751098    -0.3190155613
Bq         1.7780630203    -2.5347837628    -0.3121452915
Bq         1.7762174951    -2.4852924158    -0.3052750217
Bq         1.7743719698    -2.4358010688    -0.2984047519
Bq         1.7725264445    -2.3863097218    -0.2915344821
Bq         1.7706809193    -2.3368183748    -0.2846642124
Bq         1.7688353940    -2.2873270277    -0.2777939426
Bq         1.7669898687    -2.2378356807    -0.2709236728
Bq         1.7651443435    -2.1883443337    -0.2640534030
Bq         1.7632988182    -2.1388529867    -0.2571831332
Bq         1.7614532929    -2.0893616397    -0.2503128635
Bq         1.7596077677    -2.0398702926    -0.2434425937
Bq         1.7577622424    -1.9903789456    -0.2365723239
Bq         1.7559167171    -1.9408875986    -0.2297020541
Bq         1.7540711919    -1.8913962516    -0.2228317844
Bq         1.7522256666    -1.8419049046    -0.2159615146
Bq         1.7503801413    -1.7924135576    -0.2090912448
Bq         1.7485346161    -1.7429222105    -0.2022209750
Bq         1.7466890908    -1.6934308635    -0.1953507052
Bq         1.7448435655    -1.6439395165    -0.1884804355
Bq         1.7429980403    -1.5944481695    -0.1816101657
Bq         1.7411525150    -1.5449568225    -0.1747398959
Bq         1.7393069897    -1.4954654754    -0.1678696261
Bq         1.7374614645    -1.4459741284    -0.1609993563
Bq         1.7356159392    -1.3964827814    -0.1541290866
Bq         1.7337704139    -1.3469914344    -0.1472588168
Bq         1.7319248887    -1.2975000874    -0.1403885470
Bq         1.7300793634    -1.2480087404    -0.1335182772
Bq         1.7282338381    -1.1985173933    -0.1266480074
Bq         1.7263883128    -1.1490260463    -0.1197777377
Bq         1.7245427876    -1.0995346993    -0.1129074679
Bq         1.7226972623    -1.0500433523    -0.1060371981
Bq         1.7208517370    -1.0005520053    -0.0991669283
Bq         1.7190062118    -0.9510606583    -0.0922966585
Bq         1.7171606865    -0.9015693112    -0.0854263888
Bq         1.7153151612    -0.8520779642    -0.0785561190
Bq         1.7134696360    -0.8025866172    -0.0716858492
Bq         1.7116241107    -0.7530952702    -0.0648155794
Bq         1.7097785854    -0.7036039232    -0.0579453096
Bq         1.7079330602    -0.6541125761    -0.0510750399
Bq         1.7060875349    -0.6046212291    -0.0442047701
Bq         1.7042420096    -0.5551298821    -0.0373345003
Bq         1.7023964844    -0.5056385351    -0.0304642305
Bq         1.7005509591    -0.4561471881    -0.0235939607
Bq         1.6987054338    -0.4066558411    -0.0167236910
Bq         1.6968599086    -0.3571644940    -0.0098534212
Bq         1.6950143833    -0.3076731470    -0.0029831514
Bq         1.6931688580    -0.2581818000     0.0038871184
Bq         1.6913233328    -0.2086904530     0.0107573882
Bq         1.6894778075    -0.1591991060     0.0176276579
Bq         1.6876322822    -0.1097077589     0.0244979277
Bq         1.6857867570    -0.0602164119     0.0313681975
Bq         1.6839412317    -0.0107250649     0.0382384673
Bq         1.6820957064     0.0387662821     0.0451087370
Bq         1.6802501812     0.0882576291     0.0519790068
Bq         1.6784046559     0.1377489761     0.0588492766
Bq         1.6765591306     0.1872403232     0.0657195464
Bq         1.6747136054     0.2367316702     0.0725898162
Bq         1.6728680801     0.2862230172     0.0794600859

1
2
3
4
5
6
7
8
9
10
11
12
13
14
15
16
17
18
19
20
21
22
23
24
25
26
27
28
29
30
31
32
33
34
35
36
37
38
39
40
41
42
43
44
45
46
47
48
49
50
51
52
53
54
55
56
57
58
59
60
61
62
63
64
65
66
67
68
69
70
71
72
73
74
75
76
77
78
79
80
81
82
83
84
85
86
87
88
89
90
91
92
93
94
95
96
97
98
99
100
101
102
103
104
105
106
107
108
109
110
111
112
113
114
115
116
117
118
119
120
121
122
123
124
125
126
127
128
129
130
131
132
133
134
135
136
137
138
139
140
141
142
143
144
145
146
147
148
149
150
151
152
153
154
155
156
157
158
159
160
161
162
163
164
165
166
167
168
169
170
171
172
173
174
175
176
177
178
179
180
181
182
183
184
185
186
187
188
189
190
191
192
193
194
195
196
197
198
199
200
201
202
203
204
205
206
207
208
209
210
211
212
213
214
215
216
217
218
219
220
221
222
223
224
225
226
227
228
229
230
231
232
233
234
235
236

