%nproc=8
%mem=1000MB
# rb3lyp/6-311+g** NMR geom=connectivity

Title

0 1
C    -4.0500558   -0.5771862    0.8136712
H    -5.0263804   -1.0082727    1.0024760
C    -3.9381552    0.6617804    0.2400876
H    -4.8252424    1.2338890   -0.0111295
C    -2.6768410    1.2433246    0.0057578
C    -1.4974121    0.5051527    0.2848253
C    -1.6508332   -0.7338728    0.9404026
H    -0.7713646   -1.2730967    1.2633753
C    -2.8898548   -1.2624035    1.1994307
H    -2.9683706   -2.2124563    1.7152676
C    -2.5773185    2.5963696   -0.4192930
H    -3.4870728    3.1412239   -0.6474055
C    -1.3741895    3.2147896   -0.4364030
H    -1.2997315    4.2742019   -0.6578144
C    -0.1719488    2.4994090   -0.1734588
C    -0.2043917    1.1018437    0.0192689
C     1.0513491    3.2042560   -0.0676222
H     1.0427344    4.2819499   -0.1896997
C     2.1942091    2.5487446    0.2579577
H     3.1168527    3.0912848    0.4334727
C     2.2216473    1.1336562    0.2934990
C     1.0486931    0.3945528    0.0302412
C     3.4483363    0.4614633    0.5573939
H     4.3095794    1.0606054    0.8334846
C     3.5427346   -0.8855926    0.4749463
H     4.4731467   -1.3939704    0.7038822
C     2.4490052   -1.6474447   -0.0196319
C     1.2150704   -1.0057258   -0.3013573
C     0.2531113   -1.7434440   -1.0216591
H    -0.6541356   -1.2535051   -1.3462847
C     0.4494193   -3.0628597   -1.3413779
H    -0.3083162   -3.5944309   -1.9054060
C     1.6251726   -3.7207967   -0.9552541
H     1.7670048   -4.7687404   -1.1927019
C     2.6109872   -3.0144177   -0.3183050
H     3.5525612   -3.4902813   -0.0646367
Bq        -3.2480502462     3.6050651749    -0.6347447112
Bq        -3.2475637691     3.6535350909    -0.6470097259
Bq        -3.2470772920     3.7020050068    -0.6592747406
Bq        -3.2465908149     3.7504749228    -0.6715397553
Bq        -3.2461043378     3.7989448388    -0.6838047700
Bq        -3.2456178606     3.8474147548    -0.6960697847
Bq        -3.2451313835     3.8958846707    -0.7083347995
Bq        -3.2446449064     3.9443545867    -0.7205998142
Bq        -3.2441584293     3.9928245027    -0.7328648289
Bq        -3.2436719522     4.0412944186    -0.7451298436
Bq        -3.2431854751     4.0897643346    -0.7573948583
Bq        -3.2426989980     4.1382342506    -0.7696598730
Bq        -3.2422125209     4.1867041665    -0.7819248877
Bq        -3.2417260437     4.2351740825    -0.7941899024
Bq        -3.2412395666     4.2836439985    -0.8064549172
Bq        -3.2399265619    -0.5633475985     0.4220281861
Bq        -3.2394400848    -0.5148776825     0.4097631714
Bq        -3.2389536077    -0.4664077665     0.3974981567
Bq        -3.2384671306    -0.4179378506     0.3852331420
Bq        -3.2379806535    -0.3694679346     0.3729681273
Bq        -3.2374941764    -0.3209980186     0.3607031126
Bq        -3.2370076993    -0.2725281027     0.3484380978
Bq        -3.2365212222    -0.2240581867     0.3361730831
Bq        -3.2360347450    -0.1755882707     0.3239080684
Bq        -3.2355482679    -0.1271183548     0.3116430537
Bq        -3.2350617908    -0.0786484388     0.2993780390
Bq        -3.2345753137    -0.0301785228     0.2871130243
Bq        -3.2340888366     0.0182913932     0.2748480096
Bq        -3.2336023595     0.0667613091     0.2625829948
Bq        -3.2331158824     0.1152312251     0.2503179801
Bq        -3.2326294053     0.1637011411     0.2380529654
Bq        -3.2321429281     0.2121710570     0.2257879507
Bq        -3.2316564510     0.2606409730     0.2135229360
Bq        -3.2311699739     0.3091108890     0.2012579213
Bq        -3.2306834968     0.3575808049     0.1889929066
Bq        -3.2301970197     0.4060507209     0.1767278919
Bq        -3.2297105426     0.4545206369     0.1644628771
Bq        -3.2292240655     0.5029905529     0.1521978624
Bq        -3.2287375884     0.5514604688     0.1399328477
Bq        -3.2282511112     0.5999303848     0.1276678330
Bq        -3.2277646341     0.6484003008     0.1154028183
Bq        -3.2272781570     0.6968702167     0.1031378036
Bq        -3.2267916799     0.7453401327     0.0908727889
Bq        -3.2263052028     0.7938100487     0.0786077741
Bq        -3.2258187257     0.8422799646     0.0663427594
Bq        -3.2253322486     0.8907498806     0.0540777447
Bq        -3.2248457715     0.9392197966     0.0418127300
Bq        -3.2243592943     0.9876897125     0.0295477153
Bq        -3.2238728172     1.0361596285     0.0172827006
Bq        -3.2233863401     1.0846295445     0.0050176859
Bq        -3.2228998630     1.1330994605    -0.0072473288
Bq        -3.2224133859     1.1815693764    -0.0195123436
Bq        -3.2219269088     1.2300392924    -0.0317773583
Bq        -3.2214404317     1.2785092084    -0.0440423730
Bq        -3.2209539546     1.3269791243    -0.0563073877
Bq        -3.2204674774     1.3754490403    -0.0685724024
Bq        -3.2199810003     1.4239189563    -0.0808374171
Bq        -3.2194945232     1.4723888722    -0.0931024318
Bq        -3.2190080461     1.5208587882    -0.1053674466
Bq        -3.2185215690     1.5693287042    -0.1176324613
Bq        -3.2180350919     1.6177986202    -0.1298974760
Bq        -3.2175486148     1.6662685361    -0.1421624907
Bq        -3.2170621377     1.7147384521    -0.1544275054
Bq        -3.2165756606     1.7632083681    -0.1666925201
Bq        -3.2160891834     1.8116782840    -0.1789575348
Bq        -3.2156027063     1.8601482000    -0.1912225496
Bq        -3.2151162292     1.9086181160    -0.2034875643
Bq        -3.2146297521     1.9570880319    -0.2157525790
Bq        -3.2141432750     2.0055579479    -0.2280175937
Bq        -3.2136567979     2.0540278639    -0.2402826084
Bq        -3.2131703208     2.1024977798    -0.2525476231
Bq        -3.2126838437     2.1509676958    -0.2648126378
Bq        -3.2121973665     2.1994376118    -0.2770776525
Bq        -3.2117108894     2.2479075278    -0.2893426673
Bq        -3.2112244123     2.2963774437    -0.3016076820
Bq        -3.2107379352     2.3448473597    -0.3138726967
Bq        -3.2102514581     2.3933172757    -0.3261377114
Bq        -3.2097649810     2.4417871916    -0.3384027261
Bq        -3.2092785039     2.4902571076    -0.3506677408
Bq        -3.2087920268     2.5387270236    -0.3629327555
Bq        -3.2083055496     2.5871969395    -0.3751977703
Bq        -3.2078190725     2.6356668555    -0.3874627850
Bq        -3.2073325954     2.6841367715    -0.3997277997
Bq        -3.2068461183     2.7326066875    -0.4119928144
Bq        -3.2063596412     2.7810766034    -0.4242578291
Bq        -3.2058731641     2.8295465194    -0.4365228438
Bq        -3.2053866870     2.8780164354    -0.4487878585
Bq        -3.2049002099     2.9264863513    -0.4610528733
Bq        -3.2044137327     2.9749562673    -0.4733178880
Bq        -3.2039272556     3.0234261833    -0.4855829027
Bq        -3.2034407785     3.0718960992    -0.4978479174
Bq        -3.2029543014     3.1203660152    -0.5101129321
Bq        -3.2024678243     3.1688359312    -0.5223779468
Bq        -3.2019813472     3.2173058471    -0.5346429615
Bq        -3.2014948701     3.2657757631    -0.5469079762
Bq        -3.2010083930     3.3142456791    -0.5591729910
Bq        -3.2005219158     3.3627155951    -0.5714380057
Bq        -3.2000354387     3.4111855110    -0.5837030204
Bq        -3.1995489616     3.4596554270    -0.5959680351
Bq        -3.1990624845     3.5081253430    -0.6082330498
Bq        -3.1985760074     3.5565952589    -0.6204980645
Bq        -3.1980895303     3.6050651749    -0.6327630792
Bq        -3.1976030532     3.6535350909    -0.6450280940
Bq        -3.1971165761     3.7020050068    -0.6572931087
Bq        -3.1966300989     3.7504749228    -0.6695581234
Bq        -3.1961436218     3.7989448388    -0.6818231381
Bq        -3.1956571447     3.8474147548    -0.6940881528
Bq        -3.1951706676     3.8958846707    -0.7063531675
Bq        -3.1946841905     3.9443545867    -0.7186181822
Bq        -3.1941977134     3.9928245027    -0.7308831970
Bq        -3.1937112363     4.0412944186    -0.7431482117
Bq        -3.1932247592     4.0897643346    -0.7554132264
Bq        -3.1927382821     4.1382342506    -0.7676782411
Bq        -3.1922518049     4.1867041665    -0.7799432558
Bq        -3.1917653278     4.2351740825    -0.7922082705
Bq        -3.1912788507     4.2836439985    -0.8044732852
Bq        -3.1899658460    -0.5633475985     0.4240098181
Bq        -3.1894793689    -0.5148776825     0.4117448033
Bq        -3.1889928918    -0.4664077665     0.3994797886
Bq        -3.1885064147    -0.4179378506     0.3872147739
Bq        -3.1880199376    -0.3694679346     0.3749497592
Bq        -3.1875334605    -0.3209980186     0.3626847445
Bq        -3.1870469833    -0.2725281027     0.3504197298
Bq        -3.1865605062    -0.2240581867     0.3381547151
Bq        -3.1860740291    -0.1755882707     0.3258897003
Bq        -3.1855875520    -0.1271183548     0.3136246856
Bq        -3.1851010749    -0.0786484388     0.3013596709
Bq        -3.1846145978    -0.0301785228     0.2890946562
Bq        -3.1841281207     0.0182913932     0.2768296415
Bq        -3.1836416436     0.0667613091     0.2645646268
Bq        -3.1831551664     0.1152312251     0.2522996121
Bq        -3.1826686893     0.1637011411     0.2400345974
Bq        -3.1821822122     0.2121710570     0.2277695826
Bq        -3.1816957351     0.2606409730     0.2155045679
Bq        -3.1812092580     0.3091108890     0.2032395532
Bq        -3.1807227809     0.3575808049     0.1909745385
Bq        -3.1802363038     0.4060507209     0.1787095238
Bq        -3.1797498267     0.4545206369     0.1664445091
Bq        -3.1792633496     0.5029905529     0.1541794944
Bq        -3.1787768724     0.5514604688     0.1419144796
Bq        -3.1782903953     0.5999303848     0.1296494649
Bq        -3.1778039182     0.6484003008     0.1173844502
Bq        -3.1773174411     0.6968702167     0.1051194355
Bq        -3.1768309640     0.7453401327     0.0928544208
Bq        -3.1763444869     0.7938100487     0.0805894061
Bq        -3.1758580098     0.8422799646     0.0683243914
Bq        -3.1753715327     0.8907498806     0.0560593766
Bq        -3.1748850555     0.9392197966     0.0437943619
Bq        -3.1743985784     0.9876897125     0.0315293472
Bq        -3.1739121013     1.0361596285     0.0192643325
Bq        -3.1734256242     1.0846295445     0.0069993178
Bq        -3.1729391471     1.1330994605    -0.0052656969
Bq        -3.1724526700     1.1815693764    -0.0175307116
Bq        -3.1719661929     1.2300392924    -0.0297957263
Bq        -3.1714797158     1.2785092084    -0.0420607411
Bq        -3.1709932386     1.3269791243    -0.0543257558
Bq        -3.1705067615     1.3754490403    -0.0665907705
Bq        -3.1700202844     1.4239189563    -0.0788557852
Bq        -3.1695338073     1.4723888722    -0.0911207999
Bq        -3.1690473302     1.5208587882    -0.1033858146
Bq        -3.1685608531     1.5693287042    -0.1156508293
Bq        -3.1680743760     1.6177986202    -0.1279158441
Bq        -3.1675878989     1.6662685361    -0.1401808588
Bq        -3.1671014217     1.7147384521    -0.1524458735
Bq        -3.1666149446     1.7632083681    -0.1647108882
Bq        -3.1661284675     1.8116782840    -0.1769759029
Bq        -3.1656419904     1.8601482000    -0.1892409176
Bq        -3.1651555133     1.9086181160    -0.2015059323
Bq        -3.1646690362     1.9570880319    -0.2137709470
Bq        -3.1641825591     2.0055579479    -0.2260359618
Bq        -3.1636960820     2.0540278639    -0.2383009765
Bq        -3.1632096048     2.1024977798    -0.2505659912
Bq        -3.1627231277     2.1509676958    -0.2628310059
Bq        -3.1622366506     2.1994376118    -0.2750960206
Bq        -3.1617501735     2.2479075278    -0.2873610353
Bq        -3.1612636964     2.2963774437    -0.2996260500
Bq        -3.1607772193     2.3448473597    -0.3118910648
Bq        -3.1602907422     2.3933172757    -0.3241560795
Bq        -3.1598042651     2.4417871916    -0.3364210942
Bq        -3.1593177880     2.4902571076    -0.3486861089
Bq        -3.1588313108     2.5387270236    -0.3609511236
Bq        -3.1583448337     2.5871969395    -0.3732161383
Bq        -3.1578583566     2.6356668555    -0.3854811530
Bq        -3.1573718795     2.6841367715    -0.3977461678
Bq        -3.1568854024     2.7326066875    -0.4100111825
Bq        -3.1563989253     2.7810766034    -0.4222761972
Bq        -3.1559124482     2.8295465194    -0.4345412119
Bq        -3.1554259711     2.8780164354    -0.4468062266
Bq        -3.1549394939     2.9264863513    -0.4590712413
Bq        -3.1544530168     2.9749562673    -0.4713362560
Bq        -3.1539665397     3.0234261833    -0.4836012707
Bq        -3.1534800626     3.0718960992    -0.4958662855
Bq        -3.1529935855     3.1203660152    -0.5081313002
Bq        -3.1525071084     3.1688359312    -0.5203963149
Bq        -3.1520206313     3.2173058471    -0.5326613296
Bq        -3.1515341542     3.2657757631    -0.5449263443
Bq        -3.1510476770     3.3142456791    -0.5571913590
Bq        -3.1505611999     3.3627155951    -0.5694563737
Bq        -3.1500747228     3.4111855110    -0.5817213885
Bq        -3.1495882457     3.4596554270    -0.5939864032

1
2
3
4
5
6
7
8
9
10
11
12
13
14
15
16
17
18
19
20
21
22
23
24
25
26
27
28
29
30
31
32
33
34
35
36
37
38
39
40
41
42
43
44
45
46
47
48
49
50
51
52
53
54
55
56
57
58
59
60
61
62
63
64
65
66
67
68
69
70
71
72
73
74
75
76
77
78
79
80
81
82
83
84
85
86
87
88
89
90
91
92
93
94
95
96
97
98
99
100
101
102
103
104
105
106
107
108
109
110
111
112
113
114
115
116
117
118
119
120
121
122
123
124
125
126
127
128
129
130
131
132
133
134
135
136
137
138
139
140
141
142
143
144
145
146
147
148
149
150
151
152
153
154
155
156
157
158
159
160
161
162
163
164
165
166
167
168
169
170
171
172
173
174
175
176
177
178
179
180
181
182
183
184
185
186
187
188
189
190
191
192
193
194
195
196
197
198
199
200
201
202
203
204
205
206
207
208
209
210
211
212
213
214
215
216
217
218
219
220
221
222
223
224
225
226
227
228
229
230
231
232
233
234
235
236

