%nproc=8
%mem=1000MB
# rb3lyp/6-311+g** NMR geom=connectivity

Title

0 1
C    -4.0500558   -0.5771862    0.8136712
H    -5.0263804   -1.0082727    1.0024760
C    -3.9381552    0.6617804    0.2400876
H    -4.8252424    1.2338890   -0.0111295
C    -2.6768410    1.2433246    0.0057578
C    -1.4974121    0.5051527    0.2848253
C    -1.6508332   -0.7338728    0.9404026
H    -0.7713646   -1.2730967    1.2633753
C    -2.8898548   -1.2624035    1.1994307
H    -2.9683706   -2.2124563    1.7152676
C    -2.5773185    2.5963696   -0.4192930
H    -3.4870728    3.1412239   -0.6474055
C    -1.3741895    3.2147896   -0.4364030
H    -1.2997315    4.2742019   -0.6578144
C    -0.1719488    2.4994090   -0.1734588
C    -0.2043917    1.1018437    0.0192689
C     1.0513491    3.2042560   -0.0676222
H     1.0427344    4.2819499   -0.1896997
C     2.1942091    2.5487446    0.2579577
H     3.1168527    3.0912848    0.4334727
C     2.2216473    1.1336562    0.2934990
C     1.0486931    0.3945528    0.0302412
C     3.4483363    0.4614633    0.5573939
H     4.3095794    1.0606054    0.8334846
C     3.5427346   -0.8855926    0.4749463
H     4.4731467   -1.3939704    0.7038822
C     2.4490052   -1.6474447   -0.0196319
C     1.2150704   -1.0057258   -0.3013573
C     0.2531113   -1.7434440   -1.0216591
H    -0.6541356   -1.2535051   -1.3462847
C     0.4494193   -3.0628597   -1.3413779
H    -0.3083162   -3.5944309   -1.9054060
C     1.6251726   -3.7207967   -0.9552541
H     1.7670048   -4.7687404   -1.1927019
C     2.6109872   -3.0144177   -0.3183050
H     3.5525612   -3.4902813   -0.0646367
Bq         0.0896997120     2.7126566551    -0.1214613359
Bq         0.0900557790     2.7625962627    -0.1238921383
Bq         0.0904118460     2.8125358704    -0.1263229407
Bq         0.0907679129     2.8624754781    -0.1287537431
Bq         0.0911239799     2.9124150858    -0.1311845454
Bq         0.0914800469     2.9623546935    -0.1336153478
Bq         0.0918361139     3.0122943012    -0.1360461502
Bq         0.0921921808     3.0622339089    -0.1384769526
Bq         0.0925482478     3.1121735166    -0.1409077550
Bq         0.0929043148     3.1621131243    -0.1433385574
Bq         0.0932603817     3.2120527319    -0.1457693597
Bq         0.0936164487     3.2619923396    -0.1482001621
Bq         0.0939725157     3.3119319473    -0.1506309645
Bq         0.0943285826     3.3618715550    -0.1530617669
Bq         0.0946846496     3.4118111627    -0.1554925693
Bq         0.0950407166     3.4617507704    -0.1579233717
Bq         0.0953967836     3.5116903781    -0.1603541740
Bq         0.0957528505     3.5616299858    -0.1627849764
Bq         0.0961089175     3.6115695935    -0.1652157788
Bq         0.0964649845     3.6615092011    -0.1676465812
Bq         0.0968210514     3.7114488088    -0.1700773836
Bq         0.0971771184     3.7613884165    -0.1725081860
Bq         0.0975331854     3.8113280242    -0.1749389883
Bq         0.0978892524     3.8612676319    -0.1773697907
Bq         0.0982453193     3.9112072396    -0.1798005931
Bq         0.0986013863     3.9611468473    -0.1822313955
Bq         0.0989574533     4.0110864550    -0.1846621979
Bq         0.0993135202     4.0610260627    -0.1870930003
Bq         0.0996695872     4.1109656703    -0.1895238026
Bq         0.1000256542     4.1609052780    -0.1919546050
Bq         0.1003817212     4.2108448857    -0.1943854074
Bq         0.1007377881     4.2607844934    -0.1968162098
Bq         0.1010938551     4.3107241011    -0.1992470122
Bq         0.1149592199    -0.6832366678     0.0510799556
Bq         0.1153152869    -0.6332970601     0.0486491532
Bq         0.1156713539    -0.5833574524     0.0462183508
Bq         0.1160274209    -0.5334178447     0.0437875485
Bq         0.1163834878    -0.4834782370     0.0413567461
Bq         0.1167395548    -0.4335386293     0.0389259437
Bq         0.1170956218    -0.3835990216     0.0364951413
Bq         0.1174516887    -0.3336594139     0.0340643389
Bq         0.1178077557    -0.2837198063     0.0316335365
Bq         0.1181638227    -0.2337801986     0.0292027342
Bq         0.1185198897    -0.1838405909     0.0267719318
Bq         0.1188759566    -0.1339009832     0.0243411294
Bq         0.1192320236    -0.0839613755     0.0219103270
Bq         0.1195880906    -0.0340217678     0.0194795246
Bq         0.1199441575     0.0159178399     0.0170487222
Bq         0.1203002245     0.0658574476     0.0146179199
Bq         0.1206562915     0.1157970553     0.0121871175
Bq         0.1210123585     0.1657366629     0.0097563151
Bq         0.1213684254     0.2156762706     0.0073255127
Bq         0.1217244924     0.2656158783     0.0048947103
Bq         0.1220805594     0.3155554860     0.0024639079
Bq         0.1224366263     0.3654950937     0.0000331056
Bq         0.1227926933     0.4154347014    -0.0023976968
Bq         0.1231487603     0.4653743091    -0.0048284992
Bq         0.1235048272     0.5153139168    -0.0072593016
Bq         0.1238608942     0.5652535245    -0.0096901040
Bq         0.1242169612     0.6151931321    -0.0121209064
Bq         0.1245730282     0.6651327398    -0.0145517087
Bq         0.1249290951     0.7150723475    -0.0169825111
Bq         0.1252851621     0.7650119552    -0.0194133135
Bq         0.1256412291     0.8149515629    -0.0218441159
Bq         0.1259972960     0.8648911706    -0.0242749183
Bq         0.1263533630     0.9148307783    -0.0267057207
Bq         0.1267094300     0.9647703860    -0.0291365230
Bq         0.1270654970     1.0147099936    -0.0315673254
Bq         0.1274215639     1.0646496013    -0.0339981278
Bq         0.1277776309     1.1145892090    -0.0364289302
Bq         0.1281336979     1.1645288167    -0.0388597326
Bq         0.1284897648     1.2144684244    -0.0412905350
Bq         0.1288458318     1.2644080321    -0.0437213373
Bq         0.1292018988     1.3143476398    -0.0461521397
Bq         0.1295579658     1.3642872475    -0.0485829421
Bq         0.1299140327     1.4142268552    -0.0510137445
Bq         0.1302700997     1.4641664628    -0.0534445469
Bq         0.1306261667     1.5141060705    -0.0558753493
Bq         0.1309822336     1.5640456782    -0.0583061516
Bq         0.1313383006     1.6139852859    -0.0607369540
Bq         0.1316943676     1.6639248936    -0.0631677564
Bq         0.1320504345     1.7138645013    -0.0655985588
Bq         0.1324065015     1.7638041090    -0.0680293612
Bq         0.1327625685     1.8137437167    -0.0704601636
Bq         0.1331186355     1.8636833244    -0.0728909659
Bq         0.1334747024     1.9136229320    -0.0753217683
Bq         0.1338307694     1.9635625397    -0.0777525707
Bq         0.1341868364     2.0135021474    -0.0801833731
Bq         0.1345429033     2.0634417551    -0.0826141755
Bq         0.1348989703     2.1133813628    -0.0850449779
Bq         0.1352550373     2.1633209705    -0.0874757802
Bq         0.1356111043     2.2132605782    -0.0899065826
Bq         0.1359671712     2.2632001859    -0.0923373850
Bq         0.1363232382     2.3131397936    -0.0947681874
Bq         0.1366793052     2.3630794012    -0.0971989898
Bq         0.1370353721     2.4130190089    -0.0996297922
Bq         0.1373914391     2.4629586166    -0.1020605945
Bq         0.1377475061     2.5128982243    -0.1044913969
Bq         0.1381035731     2.5628378320    -0.1069221993
Bq         0.1384596400     2.6127774397    -0.1093530017
Bq         0.1388157070     2.6627170474    -0.1117838041
Bq         0.1391717740     2.7126566551    -0.1142146065
Bq         0.1395278409     2.7625962627    -0.1166454088
Bq         0.1398839079     2.8125358704    -0.1190762112
Bq         0.1402399749     2.8624754781    -0.1215070136
Bq         0.1405960418     2.9124150858    -0.1239378160
Bq         0.1409521088     2.9623546935    -0.1263686184
Bq         0.1413081758     3.0122943012    -0.1287994208
Bq         0.1416642428     3.0622339089    -0.1312302231
Bq         0.1420203097     3.1121735166    -0.1336610255
Bq         0.1423763767     3.1621131243    -0.1360918279
Bq         0.1427324437     3.2120527319    -0.1385226303
Bq         0.1430885106     3.2619923396    -0.1409534327
Bq         0.1434445776     3.3119319473    -0.1433842351
Bq         0.1438006446     3.3618715550    -0.1458150374
Bq         0.1441567116     3.4118111627    -0.1482458398
Bq         0.1445127785     3.4617507704    -0.1506766422
Bq         0.1448688455     3.5116903781    -0.1531074446
Bq         0.1452249125     3.5616299858    -0.1555382470
Bq         0.1455809794     3.6115695935    -0.1579690494
Bq         0.1459370464     3.6615092011    -0.1603998517
Bq         0.1462931134     3.7114488088    -0.1628306541
Bq         0.1466491804     3.7613884165    -0.1652614565
Bq         0.1470052473     3.8113280242    -0.1676922589
Bq         0.1473613143     3.8612676319    -0.1701230613
Bq         0.1477173813     3.9112072396    -0.1725538637
Bq         0.1480734482     3.9611468473    -0.1749846660
Bq         0.1484295152     4.0110864550    -0.1774154684
Bq         0.1487855822     4.0610260627    -0.1798462708
Bq         0.1491416491     4.1109656703    -0.1822770732
Bq         0.1494977161     4.1609052780    -0.1847078756
Bq         0.1498537831     4.2108448857    -0.1871386780
Bq         0.1502098501     4.2607844934    -0.1895694803
Bq         0.1505659170     4.3107241011    -0.1920002827
Bq         0.1644312819    -0.6832366678     0.0583266851
Bq         0.1647873489    -0.6332970601     0.0558958827
Bq         0.1651434158    -0.5833574524     0.0534650803
Bq         0.1654994828    -0.5334178447     0.0510342779
Bq         0.1658555498    -0.4834782370     0.0486034755
Bq         0.1662116167    -0.4335386293     0.0461726731
Bq         0.1665676837    -0.3835990216     0.0437418708
Bq         0.1669237507    -0.3336594139     0.0413110684
Bq         0.1672798176    -0.2837198063     0.0388802660
Bq         0.1676358846    -0.2337801986     0.0364494636
Bq         0.1679919516    -0.1838405909     0.0340186612
Bq         0.1683480186    -0.1339009832     0.0315878588
Bq         0.1687040855    -0.0839613755     0.0291570565
Bq         0.1690601525    -0.0340217678     0.0267262541
Bq         0.1694162195     0.0159178399     0.0242954517
Bq         0.1697722864     0.0658574476     0.0218646493
Bq         0.1701283534     0.1157970553     0.0194338469
Bq         0.1704844204     0.1657366629     0.0170030445
Bq         0.1708404874     0.2156762706     0.0145722422
Bq         0.1711965543     0.2656158783     0.0121414398
Bq         0.1715526213     0.3155554860     0.0097106374
Bq         0.1719086883     0.3654950937     0.0072798350
Bq         0.1722647552     0.4154347014     0.0048490326
Bq         0.1726208222     0.4653743091     0.0024182302
Bq         0.1729768892     0.5153139168    -0.0000125721
Bq         0.1733329562     0.5652535245    -0.0024433745
Bq         0.1736890231     0.6151931321    -0.0048741769
Bq         0.1740450901     0.6651327398    -0.0073049793
Bq         0.1744011571     0.7150723475    -0.0097357817
Bq         0.1747572240     0.7650119552    -0.0121665841
Bq         0.1751132910     0.8149515629    -0.0145973864
Bq         0.1754693580     0.8648911706    -0.0170281888
Bq         0.1758254250     0.9148307783    -0.0194589912
Bq         0.1761814919     0.9647703860    -0.0218897936
Bq         0.1765375589     1.0147099936    -0.0243205960
Bq         0.1768936259     1.0646496013    -0.0267513984
Bq         0.1772496928     1.1145892090    -0.0291822007
Bq         0.1776057598     1.1645288167    -0.0316130031
Bq         0.1779618268     1.2144684244    -0.0340438055
Bq         0.1783178937     1.2644080321    -0.0364746079
Bq         0.1786739607     1.3143476398    -0.0389054103
Bq         0.1790300277     1.3642872475    -0.0413362127
Bq         0.1793860947     1.4142268552    -0.0437670150
Bq         0.1797421616     1.4641664628    -0.0461978174
Bq         0.1800982286     1.5141060705    -0.0486286198
Bq         0.1804542956     1.5640456782    -0.0510594222
Bq         0.1808103625     1.6139852859    -0.0534902246
Bq         0.1811664295     1.6639248936    -0.0559210270
Bq         0.1815224965     1.7138645013    -0.0583518293
Bq         0.1818785635     1.7638041090    -0.0607826317
Bq         0.1822346304     1.8137437167    -0.0632134341
Bq         0.1825906974     1.8636833244    -0.0656442365
Bq         0.1829467644     1.9136229320    -0.0680750389
Bq         0.1833028313     1.9635625397    -0.0705058413
Bq         0.1836588983     2.0135021474    -0.0729366436
Bq         0.1840149653     2.0634417551    -0.0753674460
Bq         0.1843710323     2.1133813628    -0.0777982484
Bq         0.1847270992     2.1633209705    -0.0802290508
Bq         0.1850831662     2.2132605782    -0.0826598532
Bq         0.1854392332     2.2632001859    -0.0850906556
Bq         0.1857953001     2.3131397936    -0.0875214579
Bq         0.1861513671     2.3630794012    -0.0899522603
Bq         0.1865074341     2.4130190089    -0.0923830627
Bq         0.1868635010     2.4629586166    -0.0948138651
Bq         0.1872195680     2.5128982243    -0.0972446675
Bq         0.1875756350     2.5628378320    -0.0996754699

1
2
3
4
5
6
7
8
9
10
11
12
13
14
15
16
17
18
19
20
21
22
23
24
25
26
27
28
29
30
31
32
33
34
35
36
37
38
39
40
41
42
43
44
45
46
47
48
49
50
51
52
53
54
55
56
57
58
59
60
61
62
63
64
65
66
67
68
69
70
71
72
73
74
75
76
77
78
79
80
81
82
83
84
85
86
87
88
89
90
91
92
93
94
95
96
97
98
99
100
101
102
103
104
105
106
107
108
109
110
111
112
113
114
115
116
117
118
119
120
121
122
123
124
125
126
127
128
129
130
131
132
133
134
135
136
137
138
139
140
141
142
143
144
145
146
147
148
149
150
151
152
153
154
155
156
157
158
159
160
161
162
163
164
165
166
167
168
169
170
171
172
173
174
175
176
177
178
179
180
181
182
183
184
185
186
187
188
189
190
191
192
193
194
195
196
197
198
199
200
201
202
203
204
205
206
207
208
209
210
211
212
213
214
215
216
217
218
219
220
221
222
223
224
225
226
227
228
229
230
231
232
233
234
235
236

