%nproc=8
%mem=1000MB
# rb3lyp/6-311+g** NMR geom=connectivity

Title

0 1
C    -4.0500558   -0.5771862    0.8136712
H    -5.0263804   -1.0082727    1.0024760
C    -3.9381552    0.6617804    0.2400876
H    -4.8252424    1.2338890   -0.0111295
C    -2.6768410    1.2433246    0.0057578
C    -1.4974121    0.5051527    0.2848253
C    -1.6508332   -0.7338728    0.9404026
H    -0.7713646   -1.2730967    1.2633753
C    -2.8898548   -1.2624035    1.1994307
H    -2.9683706   -2.2124563    1.7152676
C    -2.5773185    2.5963696   -0.4192930
H    -3.4870728    3.1412239   -0.6474055
C    -1.3741895    3.2147896   -0.4364030
H    -1.2997315    4.2742019   -0.6578144
C    -0.1719488    2.4994090   -0.1734588
C    -0.2043917    1.1018437    0.0192689
C     1.0513491    3.2042560   -0.0676222
H     1.0427344    4.2819499   -0.1896997
C     2.1942091    2.5487446    0.2579577
H     3.1168527    3.0912848    0.4334727
C     2.2216473    1.1336562    0.2934990
C     1.0486931    0.3945528    0.0302412
C     3.4483363    0.4614633    0.5573939
H     4.3095794    1.0606054    0.8334846
C     3.5427346   -0.8855926    0.4749463
H     4.4731467   -1.3939704    0.7038822
C     2.4490052   -1.6474447   -0.0196319
C     1.2150704   -1.0057258   -0.3013573
C     0.2531113   -1.7434440   -1.0216591
H    -0.6541356   -1.2535051   -1.3462847
C     0.4494193   -3.0628597   -1.3413779
H    -0.3083162   -3.5944309   -1.9054060
C     1.6251726   -3.7207967   -0.9552541
H     1.7670048   -4.7687404   -1.1927019
C     2.6109872   -3.0144177   -0.3183050
H     3.5525612   -3.4902813   -0.0646367
Bq         1.9561075207     0.8149515629     0.2462848740
Bq         1.9564635877     0.8648911706     0.2438540716
Bq         1.9568196546     0.9148307783     0.2414232692
Bq         1.9571757216     0.9647703860     0.2389924669
Bq         1.9575317886     1.0147099936     0.2365616645
Bq         1.9578878556     1.0646496013     0.2341308621
Bq         1.9582439225     1.1145892090     0.2317000597
Bq         1.9585999895     1.1645288167     0.2292692573
Bq         1.9589560565     1.2144684244     0.2268384549
Bq         1.9593121234     1.2644080321     0.2244076526
Bq         1.9596681904     1.3143476398     0.2219768502
Bq         1.9600242574     1.3642872475     0.2195460478
Bq         1.9603803243     1.4142268552     0.2171152454
Bq         1.9607363913     1.4641664628     0.2146844430
Bq         1.9610924583     1.5141060705     0.2122536406
Bq         1.9614485253     1.5640456782     0.2098228383
Bq         1.9618045922     1.6139852859     0.2073920359
Bq         1.9621606592     1.6639248936     0.2049612335
Bq         1.9625167262     1.7138645013     0.2025304311
Bq         1.9628727931     1.7638041090     0.2000996287
Bq         1.9632288601     1.8137437167     0.1976688263
Bq         1.9635849271     1.8636833244     0.1952380240
Bq         1.9639409941     1.9136229320     0.1928072216
Bq         1.9642970610     1.9635625397     0.1903764192
Bq         1.9646531280     2.0135021474     0.1879456168
Bq         1.9650091950     2.0634417551     0.1855148144
Bq         1.9653652619     2.1133813628     0.1830840120
Bq         1.9657213289     2.1633209705     0.1806532097
Bq         1.9660773959     2.2132605782     0.1782224073
Bq         1.9664334629     2.2632001859     0.1757916049
Bq         1.9667895298     2.3131397936     0.1733608025
Bq         1.9671455968     2.3630794012     0.1709300001
Bq         1.9675016638     2.4130190089     0.1684991978
Bq         1.9678577307     2.4629586166     0.1660683954
Bq         1.9682137977     2.5128982243     0.1636375930
Bq         1.9685698647     2.5628378320     0.1612067906
Bq         1.9689259316     2.6127774397     0.1587759882
Bq         1.9692819986     2.6627170474     0.1563451858
Bq         1.9696380656     2.7126566551     0.1539143835
Bq         1.9699941326     2.7625962627     0.1514835811
Bq         1.9703501995     2.8125358704     0.1490527787
Bq         1.9707062665     2.8624754781     0.1466219763
Bq         1.9710623335     2.9124150858     0.1441911739
Bq         1.9714184004     2.9623546935     0.1417603715
Bq         1.9717744674     3.0122943012     0.1393295692
Bq         1.9721305344     3.0622339089     0.1368987668
Bq         1.9724866014     3.1121735166     0.1344679644
Bq         1.9728426683     3.1621131243     0.1320371620
Bq         1.9731987353     3.2120527319     0.1296063596
Bq         1.9735548023     3.2619923396     0.1271755572
Bq         1.9739108692     3.3119319473     0.1247447549
Bq         1.9742669362     3.3618715550     0.1223139525
Bq         1.9746230032     3.4118111627     0.1198831501
Bq         1.9749790702     3.4617507704     0.1174523477
Bq         1.9753351371     3.5116903781     0.1150215453
Bq         1.9756912041     3.5616299858     0.1125907429
Bq         1.9760472711     3.6115695935     0.1101599406
Bq         1.9764033380     3.6615092011     0.1077291382
Bq         1.9767594050     3.7114488088     0.1052983358
Bq         1.9771154720     3.7613884165     0.1028675334
Bq         1.9774715389     3.8113280242     0.1004367310
Bq         1.9778276059     3.8612676319     0.0980059286
Bq         1.9781836729     3.9112072396     0.0955751263
Bq         1.9785397399     3.9611468473     0.0931443239
Bq         1.9788958068     4.0110864550     0.0907135215
Bq         1.9792518738     4.0610260627     0.0882827191
Bq         1.9796079408     4.1109656703     0.0858519167
Bq         1.9799640077     4.1609052780     0.0834211143
Bq         1.9803200747     4.2108448857     0.0809903120
Bq         1.9806761417     4.2607844934     0.0785595096
Bq         1.9810322087     4.3107241011     0.0761287072
Bq         1.9948975735    -0.6832366678     0.3264556750
Bq         1.9952536405    -0.6332970601     0.3240248726
Bq         1.9956097074    -0.5833574524     0.3215940702
Bq         1.9959657744    -0.5334178447     0.3191632678
Bq         1.9963218414    -0.4834782370     0.3167324654
Bq         1.9966779084    -0.4335386293     0.3143016631
Bq         1.9970339753    -0.3835990216     0.3118708607
Bq         1.9973900423    -0.3336594139     0.3094400583
Bq         1.9977461093    -0.2837198063     0.3070092559
Bq         1.9981021762    -0.2337801986     0.3045784535
Bq         1.9984582432    -0.1838405909     0.3021476511
Bq         1.9988143102    -0.1339009832     0.2997168488
Bq         1.9991703772    -0.0839613755     0.2972860464
Bq         1.9995264441    -0.0340217678     0.2948552440
Bq         1.9998825111     0.0159178399     0.2924244416
Bq         2.0002385781     0.0658574476     0.2899936392
Bq         2.0005946450     0.1157970553     0.2875628368
Bq         2.0009507120     0.1657366629     0.2851320345
Bq         2.0013067790     0.2156762706     0.2827012321
Bq         2.0016628460     0.2656158783     0.2802704297
Bq         2.0020189129     0.3155554860     0.2778396273
Bq         2.0023749799     0.3654950937     0.2754088249
Bq         2.0027310469     0.4154347014     0.2729780225
Bq         2.0030871138     0.4653743091     0.2705472202
Bq         2.0034431808     0.5153139168     0.2681164178
Bq         2.0037992478     0.5652535245     0.2656856154
Bq         2.0041553147     0.6151931321     0.2632548130
Bq         2.0045113817     0.6651327398     0.2608240106
Bq         2.0048674487     0.7150723475     0.2583932082
Bq         2.0052235157     0.7650119552     0.2559624059
Bq         2.0055795826     0.8149515629     0.2535316035
Bq         2.0059356496     0.8648911706     0.2511008011
Bq         2.0062917166     0.9148307783     0.2486699987
Bq         2.0066477835     0.9647703860     0.2462391963
Bq         2.0070038505     1.0147099936     0.2438083939
Bq         2.0073599175     1.0646496013     0.2413775916
Bq         2.0077159845     1.1145892090     0.2389467892
Bq         2.0080720514     1.1645288167     0.2365159868
Bq         2.0084281184     1.2144684244     0.2340851844
Bq         2.0087841854     1.2644080321     0.2316543820
Bq         2.0091402523     1.3143476398     0.2292235796
Bq         2.0094963193     1.3642872475     0.2267927773
Bq         2.0098523863     1.4142268552     0.2243619749
Bq         2.0102084533     1.4641664628     0.2219311725
Bq         2.0105645202     1.5141060705     0.2195003701
Bq         2.0109205872     1.5640456782     0.2170695677
Bq         2.0112766542     1.6139852859     0.2146387653
Bq         2.0116327211     1.6639248936     0.2122079630
Bq         2.0119887881     1.7138645013     0.2097771606
Bq         2.0123448551     1.7638041090     0.2073463582
Bq         2.0127009220     1.8137437167     0.2049155558
Bq         2.0130569890     1.8636833244     0.2024847534
Bq         2.0134130560     1.9136229320     0.2000539510
Bq         2.0137691230     1.9635625397     0.1976231487
Bq         2.0141251899     2.0135021474     0.1951923463
Bq         2.0144812569     2.0634417551     0.1927615439
Bq         2.0148373239     2.1133813628     0.1903307415
Bq         2.0151933908     2.1633209705     0.1878999391
Bq         2.0155494578     2.2132605782     0.1854691367
Bq         2.0159055248     2.2632001859     0.1830383344
Bq         2.0162615918     2.3131397936     0.1806075320
Bq         2.0166176587     2.3630794012     0.1781767296
Bq         2.0169737257     2.4130190089     0.1757459272
Bq         2.0173297927     2.4629586166     0.1733151248
Bq         2.0176858596     2.5128982243     0.1708843224
Bq         2.0180419266     2.5628378320     0.1684535201
Bq         2.0183979936     2.6127774397     0.1660227177
Bq         2.0187540606     2.6627170474     0.1635919153
Bq         2.0191101275     2.7126566551     0.1611611129
Bq         2.0194661945     2.7625962627     0.1587303105
Bq         2.0198222615     2.8125358704     0.1562995081
Bq         2.0201783284     2.8624754781     0.1538687058
Bq         2.0205343954     2.9124150858     0.1514379034
Bq         2.0208904624     2.9623546935     0.1490071010
Bq         2.0212465293     3.0122943012     0.1465762986
Bq         2.0216025963     3.0622339089     0.1441454962
Bq         2.0219586633     3.1121735166     0.1417146938
Bq         2.0223147303     3.1621131243     0.1392838915
Bq         2.0226707972     3.2120527319     0.1368530891
Bq         2.0230268642     3.2619923396     0.1344222867
Bq         2.0233829312     3.3119319473     0.1319914843
Bq         2.0237389981     3.3618715550     0.1295606819
Bq         2.0240950651     3.4118111627     0.1271298795
Bq         2.0244511321     3.4617507704     0.1246990772
Bq         2.0248071991     3.5116903781     0.1222682748
Bq         2.0251632660     3.5616299858     0.1198374724
Bq         2.0255193330     3.6115695935     0.1174066700
Bq         2.0258754000     3.6615092011     0.1149758676
Bq         2.0262314669     3.7114488088     0.1125450652
Bq         2.0265875339     3.7613884165     0.1101142629
Bq         2.0269436009     3.8113280242     0.1076834605
Bq         2.0272996679     3.8612676319     0.1052526581
Bq         2.0276557348     3.9112072396     0.1028218557
Bq         2.0280118018     3.9611468473     0.1003910533
Bq         2.0283678688     4.0110864550     0.0979602509
Bq         2.0287239357     4.0610260627     0.0955294486
Bq         2.0290800027     4.1109656703     0.0930986462
Bq         2.0294360697     4.1609052780     0.0906678438
Bq         2.0297921366     4.2108448857     0.0882370414
Bq         2.0301482036     4.2607844934     0.0858062390
Bq         2.0305042706     4.3107241011     0.0833754366
Bq         2.0443696354    -0.6832366678     0.3337024044
Bq         2.0447257024    -0.6332970601     0.3312716020
Bq         2.0450817694    -0.5833574524     0.3288407997
Bq         2.0454378364    -0.5334178447     0.3264099973
Bq         2.0457939033    -0.4834782370     0.3239791949
Bq         2.0461499703    -0.4335386293     0.3215483925
Bq         2.0465060373    -0.3835990216     0.3191175901
Bq         2.0468621042    -0.3336594139     0.3166867877
Bq         2.0472181712    -0.2837198063     0.3142559854
Bq         2.0475742382    -0.2337801986     0.3118251830
Bq         2.0479303052    -0.1838405909     0.3093943806
Bq         2.0482863721    -0.1339009832     0.3069635782
Bq         2.0486424391    -0.0839613755     0.3045327758
Bq         2.0489985061    -0.0340217678     0.3021019734
Bq         2.0493545730     0.0159178399     0.2996711711
Bq         2.0497106400     0.0658574476     0.2972403687
Bq         2.0500667070     0.1157970553     0.2948095663
Bq         2.0504227739     0.1657366629     0.2923787639
Bq         2.0507788409     0.2156762706     0.2899479615
Bq         2.0511349079     0.2656158783     0.2875171591
Bq         2.0514909749     0.3155554860     0.2850863568
Bq         2.0518470418     0.3654950937     0.2826555544
Bq         2.0522031088     0.4154347014     0.2802247520
Bq         2.0525591758     0.4653743091     0.2777939496
Bq         2.0529152427     0.5153139168     0.2753631472
Bq         2.0532713097     0.5652535245     0.2729323448
Bq         2.0536273767     0.6151931321     0.2705015425
Bq         2.0539834437     0.6651327398     0.2680707401

1
2
3
4
5
6
7
8
9
10
11
12
13
14
15
16
17
18
19
20
21
22
23
24
25
26
27
28
29
30
31
32
33
34
35
36
37
38
39
40
41
42
43
44
45
46
47
48
49
50
51
52
53
54
55
56
57
58
59
60
61
62
63
64
65
66
67
68
69
70
71
72
73
74
75
76
77
78
79
80
81
82
83
84
85
86
87
88
89
90
91
92
93
94
95
96
97
98
99
100
101
102
103
104
105
106
107
108
109
110
111
112
113
114
115
116
117
118
119
120
121
122
123
124
125
126
127
128
129
130
131
132
133
134
135
136
137
138
139
140
141
142
143
144
145
146
147
148
149
150
151
152
153
154
155
156
157
158
159
160
161
162
163
164
165
166
167
168
169
170
171
172
173
174
175
176
177
178
179
180
181
182
183
184
185
186
187
188
189
190
191
192
193
194
195
196
197
198
199
200
201
202
203
204
205
206
207
208
209
210
211
212
213
214
215
216
217
218
219
220
221
222
223
224
225
226
227
228
229
230
231
232
233
234
235
236

