%nproc=8
%mem=1000MB
# rb3lyp/6-311+g** NMR geom=connectivity

Title

0 1
C    -4.0500558   -0.5771862    0.8136712
H    -5.0263804   -1.0082727    1.0024760
C    -3.9381552    0.6617804    0.2400876
H    -4.8252424    1.2338890   -0.0111295
C    -2.6768410    1.2433246    0.0057578
C    -1.4974121    0.5051527    0.2848253
C    -1.6508332   -0.7338728    0.9404026
H    -0.7713646   -1.2730967    1.2633753
C    -2.8898548   -1.2624035    1.1994307
H    -2.9683706   -2.2124563    1.7152676
C    -2.5773185    2.5963696   -0.4192930
H    -3.4870728    3.1412239   -0.6474055
C    -1.3741895    3.2147896   -0.4364030
H    -1.2997315    4.2742019   -0.6578144
C    -0.1719488    2.4994090   -0.1734588
C    -0.2043917    1.1018437    0.0192689
C     1.0513491    3.2042560   -0.0676222
H     1.0427344    4.2819499   -0.1896997
C     2.1942091    2.5487446    0.2579577
H     3.1168527    3.0912848    0.4334727
C     2.2216473    1.1336562    0.2934990
C     1.0486931    0.3945528    0.0302412
C     3.4483363    0.4614633    0.5573939
H     4.3095794    1.0606054    0.8334846
C     3.5427346   -0.8855926    0.4749463
H     4.4731467   -1.3939704    0.7038822
C     2.4490052   -1.6474447   -0.0196319
C     1.2150704   -1.0057258   -0.3013573
C     0.2531113   -1.7434440   -1.0216591
H    -0.6541356   -1.2535051   -1.3462847
C     0.4494193   -3.0628597   -1.3413779
H    -0.3083162   -3.5944309   -1.9054060
C     1.6251726   -3.7207967   -0.9552541
H     1.7670048   -4.7687404   -1.1927019
C     2.6109872   -3.0144177   -0.3183050
H     3.5525612   -3.4902813   -0.0646367
Bq         1.4649475710     1.3143476398     0.1495095556
Bq         1.4653036380     1.3642872475     0.1470787532
Bq         1.4656597050     1.4142268552     0.1446479508
Bq         1.4660157720     1.4641664628     0.1422171485
Bq         1.4663718389     1.5141060705     0.1397863461
Bq         1.4667279059     1.5640456782     0.1373555437
Bq         1.4670839729     1.6139852859     0.1349247413
Bq         1.4674400398     1.6639248936     0.1324939389
Bq         1.4677961068     1.7138645013     0.1300631365
Bq         1.4681521738     1.7638041090     0.1276323342
Bq         1.4685082408     1.8137437167     0.1252015318
Bq         1.4688643077     1.8636833244     0.1227707294
Bq         1.4692203747     1.9136229320     0.1203399270
Bq         1.4695764417     1.9635625397     0.1179091246
Bq         1.4699325086     2.0135021474     0.1154783222
Bq         1.4702885756     2.0634417551     0.1130475199
Bq         1.4706446426     2.1133813628     0.1106167175
Bq         1.4710007096     2.1633209705     0.1081859151
Bq         1.4713567765     2.2132605782     0.1057551127
Bq         1.4717128435     2.2632001859     0.1033243103
Bq         1.4720689105     2.3131397936     0.1008935079
Bq         1.4724249774     2.3630794012     0.0984627056
Bq         1.4727810444     2.4130190089     0.0960319032
Bq         1.4731371114     2.4629586166     0.0936011008
Bq         1.4734931783     2.5128982243     0.0911702984
Bq         1.4738492453     2.5628378320     0.0887394960
Bq         1.4742053123     2.6127774397     0.0863086936
Bq         1.4745613793     2.6627170474     0.0838778913
Bq         1.4749174462     2.7126566551     0.0814470889
Bq         1.4752735132     2.7625962627     0.0790162865
Bq         1.4756295802     2.8125358704     0.0765854841
Bq         1.4759856471     2.8624754781     0.0741546817
Bq         1.4763417141     2.9124150858     0.0717238793
Bq         1.4766977811     2.9623546935     0.0692930770
Bq         1.4770538481     3.0122943012     0.0668622746
Bq         1.4774099150     3.0622339089     0.0644314722
Bq         1.4777659820     3.1121735166     0.0620006698
Bq         1.4781220490     3.1621131243     0.0595698674
Bq         1.4784781159     3.2120527319     0.0571390650
Bq         1.4788341829     3.2619923396     0.0547082627
Bq         1.4791902499     3.3119319473     0.0522774603
Bq         1.4795463169     3.3618715550     0.0498466579
Bq         1.4799023838     3.4118111627     0.0474158555
Bq         1.4802584508     3.4617507704     0.0449850531
Bq         1.4806145178     3.5116903781     0.0425542507
Bq         1.4809705847     3.5616299858     0.0401234484
Bq         1.4813266517     3.6115695935     0.0376926460
Bq         1.4816827187     3.6615092011     0.0352618436
Bq         1.4820387856     3.7114488088     0.0328310412
Bq         1.4823948526     3.7613884165     0.0304002388
Bq         1.4827509196     3.8113280242     0.0279694365
Bq         1.4831069866     3.8612676319     0.0255386341
Bq         1.4834630535     3.9112072396     0.0231078317
Bq         1.4838191205     3.9611468473     0.0206770293
Bq         1.4841751875     4.0110864550     0.0182462269
Bq         1.4845312544     4.0610260627     0.0158154245
Bq         1.4848873214     4.1109656703     0.0133846222
Bq         1.4852433884     4.1609052780     0.0109538198
Bq         1.4855994554     4.2108448857     0.0085230174
Bq         1.4859555223     4.2607844934     0.0060922150
Bq         1.4863115893     4.3107241011     0.0036614126
Bq         1.5001769541    -0.6832366678     0.2539883804
Bq         1.5005330211    -0.6332970601     0.2515575780
Bq         1.5008890881    -0.5833574524     0.2491267756
Bq         1.5012451551    -0.5334178447     0.2466959732
Bq         1.5016012220    -0.4834782370     0.2442651709
Bq         1.5019572890    -0.4335386293     0.2418343685
Bq         1.5023133560    -0.3835990216     0.2394035661
Bq         1.5026694229    -0.3336594139     0.2369727637
Bq         1.5030254899    -0.2837198063     0.2345419613
Bq         1.5033815569    -0.2337801986     0.2321111589
Bq         1.5037376239    -0.1838405909     0.2296803566
Bq         1.5040936908    -0.1339009832     0.2272495542
Bq         1.5044497578    -0.0839613755     0.2248187518
Bq         1.5048058248    -0.0340217678     0.2223879494
Bq         1.5051618917     0.0159178399     0.2199571470
Bq         1.5055179587     0.0658574476     0.2175263446
Bq         1.5058740257     0.1157970553     0.2150955423
Bq         1.5062300927     0.1657366629     0.2126647399
Bq         1.5065861596     0.2156762706     0.2102339375
Bq         1.5069422266     0.2656158783     0.2078031351
Bq         1.5072982936     0.3155554860     0.2053723327
Bq         1.5076543605     0.3654950937     0.2029415304
Bq         1.5080104275     0.4154347014     0.2005107280
Bq         1.5083664945     0.4653743091     0.1980799256
Bq         1.5087225614     0.5153139168     0.1956491232
Bq         1.5090786284     0.5652535245     0.1932183208
Bq         1.5094346954     0.6151931321     0.1907875184
Bq         1.5097907624     0.6651327398     0.1883567161
Bq         1.5101468293     0.7150723475     0.1859259137
Bq         1.5105028963     0.7650119552     0.1834951113
Bq         1.5108589633     0.8149515629     0.1810643089
Bq         1.5112150302     0.8648911706     0.1786335065
Bq         1.5115710972     0.9148307783     0.1762027041
Bq         1.5119271642     0.9647703860     0.1737719018
Bq         1.5122832312     1.0147099936     0.1713410994
Bq         1.5126392981     1.0646496013     0.1689102970
Bq         1.5129953651     1.1145892090     0.1664794946
Bq         1.5133514321     1.1645288167     0.1640486922
Bq         1.5137074990     1.2144684244     0.1616178898
Bq         1.5140635660     1.2644080321     0.1591870875
Bq         1.5144196330     1.3143476398     0.1567562851
Bq         1.5147757000     1.3642872475     0.1543254827
Bq         1.5151317669     1.4142268552     0.1518946803
Bq         1.5154878339     1.4641664628     0.1494638779
Bq         1.5158439009     1.5141060705     0.1470330755
Bq         1.5161999678     1.5640456782     0.1446022732
Bq         1.5165560348     1.6139852859     0.1421714708
Bq         1.5169121018     1.6639248936     0.1397406684
Bq         1.5172681687     1.7138645013     0.1373098660
Bq         1.5176242357     1.7638041090     0.1348790636
Bq         1.5179803027     1.8137437167     0.1324482612
Bq         1.5183363697     1.8636833244     0.1300174589
Bq         1.5186924366     1.9136229320     0.1275866565
Bq         1.5190485036     1.9635625397     0.1251558541
Bq         1.5194045706     2.0135021474     0.1227250517
Bq         1.5197606375     2.0634417551     0.1202942493
Bq         1.5201167045     2.1133813628     0.1178634469
Bq         1.5204727715     2.1633209705     0.1154326446
Bq         1.5208288385     2.2132605782     0.1130018422
Bq         1.5211849054     2.2632001859     0.1105710398
Bq         1.5215409724     2.3131397936     0.1081402374
Bq         1.5218970394     2.3630794012     0.1057094350
Bq         1.5222531063     2.4130190089     0.1032786326
Bq         1.5226091733     2.4629586166     0.1008478303
Bq         1.5229652403     2.5128982243     0.0984170279
Bq         1.5233213073     2.5628378320     0.0959862255
Bq         1.5236773742     2.6127774397     0.0935554231
Bq         1.5240334412     2.6627170474     0.0911246207
Bq         1.5243895082     2.7126566551     0.0886938183
Bq         1.5247455751     2.7625962627     0.0862630160
Bq         1.5251016421     2.8125358704     0.0838322136
Bq         1.5254577091     2.8624754781     0.0814014112
Bq         1.5258137760     2.9124150858     0.0789706088
Bq         1.5261698430     2.9623546935     0.0765398064
Bq         1.5265259100     3.0122943012     0.0741090040
Bq         1.5268819770     3.0622339089     0.0716782017
Bq         1.5272380439     3.1121735166     0.0692473993
Bq         1.5275941109     3.1621131243     0.0668165969
Bq         1.5279501779     3.2120527319     0.0643857945
Bq         1.5283062448     3.2619923396     0.0619549921
Bq         1.5286623118     3.3119319473     0.0595241897
Bq         1.5290183788     3.3618715550     0.0570933874
Bq         1.5293744458     3.4118111627     0.0546625850
Bq         1.5297305127     3.4617507704     0.0522317826
Bq         1.5300865797     3.5116903781     0.0498009802
Bq         1.5304426467     3.5616299858     0.0473701778
Bq         1.5307987136     3.6115695935     0.0449393754
Bq         1.5311547806     3.6615092011     0.0425085731
Bq         1.5315108476     3.7114488088     0.0400777707
Bq         1.5318669146     3.7613884165     0.0376469683
Bq         1.5322229815     3.8113280242     0.0352161659
Bq         1.5325790485     3.8612676319     0.0327853635
Bq         1.5329351155     3.9112072396     0.0303545611
Bq         1.5332911824     3.9611468473     0.0279237588
Bq         1.5336472494     4.0110864550     0.0254929564
Bq         1.5340033164     4.0610260627     0.0230621540
Bq         1.5343593833     4.1109656703     0.0206313516
Bq         1.5347154503     4.1609052780     0.0182005492
Bq         1.5350715173     4.2108448857     0.0157697468
Bq         1.5354275843     4.2607844934     0.0133389445
Bq         1.5357836512     4.3107241011     0.0109081421
Bq         1.5496490161    -0.6832366678     0.2612351099
Bq         1.5500050831    -0.6332970601     0.2588043075
Bq         1.5503611500    -0.5833574524     0.2563735051
Bq         1.5507172170    -0.5334178447     0.2539427027
Bq         1.5510732840    -0.4834782370     0.2515119003
Bq         1.5514293509    -0.4335386293     0.2490810979
Bq         1.5517854179    -0.3835990216     0.2466502956
Bq         1.5521414849    -0.3336594139     0.2442194932
Bq         1.5524975519    -0.2837198063     0.2417886908
Bq         1.5528536188    -0.2337801986     0.2393578884
Bq         1.5532096858    -0.1838405909     0.2369270860
Bq         1.5535657528    -0.1339009832     0.2344962836
Bq         1.5539218197    -0.0839613755     0.2320654813
Bq         1.5542778867    -0.0340217678     0.2296346789
Bq         1.5546339537     0.0159178399     0.2272038765
Bq         1.5549900206     0.0658574476     0.2247730741
Bq         1.5553460876     0.1157970553     0.2223422717
Bq         1.5557021546     0.1657366629     0.2199114693
Bq         1.5560582216     0.2156762706     0.2174806670
Bq         1.5564142885     0.2656158783     0.2150498646
Bq         1.5567703555     0.3155554860     0.2126190622
Bq         1.5571264225     0.3654950937     0.2101882598
Bq         1.5574824894     0.4154347014     0.2077574574
Bq         1.5578385564     0.4653743091     0.2053266550
Bq         1.5581946234     0.5153139168     0.2028958527
Bq         1.5585506904     0.5652535245     0.2004650503
Bq         1.5589067573     0.6151931321     0.1980342479
Bq         1.5592628243     0.6651327398     0.1956034455
Bq         1.5596188913     0.7150723475     0.1931726431
Bq         1.5599749582     0.7650119552     0.1907418407
Bq         1.5603310252     0.8149515629     0.1883110384
Bq         1.5606870922     0.8648911706     0.1858802360
Bq         1.5610431592     0.9148307783     0.1834494336
Bq         1.5613992261     0.9647703860     0.1810186312
Bq         1.5617552931     1.0147099936     0.1785878288
Bq         1.5621113601     1.0646496013     0.1761570264
Bq         1.5624674270     1.1145892090     0.1737262241
Bq         1.5628234940     1.1645288167     0.1712954217

1
2
3
4
5
6
7
8
9
10
11
12
13
14
15
16
17
18
19
20
21
22
23
24
25
26
27
28
29
30
31
32
33
34
35
36
37
38
39
40
41
42
43
44
45
46
47
48
49
50
51
52
53
54
55
56
57
58
59
60
61
62
63
64
65
66
67
68
69
70
71
72
73
74
75
76
77
78
79
80
81
82
83
84
85
86
87
88
89
90
91
92
93
94
95
96
97
98
99
100
101
102
103
104
105
106
107
108
109
110
111
112
113
114
115
116
117
118
119
120
121
122
123
124
125
126
127
128
129
130
131
132
133
134
135
136
137
138
139
140
141
142
143
144
145
146
147
148
149
150
151
152
153
154
155
156
157
158
159
160
161
162
163
164
165
166
167
168
169
170
171
172
173
174
175
176
177
178
179
180
181
182
183
184
185
186
187
188
189
190
191
192
193
194
195
196
197
198
199
200
201
202
203
204
205
206
207
208
209
210
211
212
213
214
215
216
217
218
219
220
221
222
223
224
225
226
227
228
229
230
231
232
233
234
235
236

