%nproc=8
%mem=1000MB
# rb3lyp/6-311+g** NMR geom=connectivity

Title

0 1
C    -4.0500558   -0.5771862    0.8136712
H    -5.0263804   -1.0082727    1.0024760
C    -3.9381552    0.6617804    0.2400876
H    -4.8252424    1.2338890   -0.0111295
C    -2.6768410    1.2433246    0.0057578
C    -1.4974121    0.5051527    0.2848253
C    -1.6508332   -0.7338728    0.9404026
H    -0.7713646   -1.2730967    1.2633753
C    -2.8898548   -1.2624035    1.1994307
H    -2.9683706   -2.2124563    1.7152676
C    -2.5773185    2.5963696   -0.4192930
H    -3.4870728    3.1412239   -0.6474055
C    -1.3741895    3.2147896   -0.4364030
H    -1.2997315    4.2742019   -0.6578144
C    -0.1719488    2.4994090   -0.1734588
C    -0.2043917    1.1018437    0.0192689
C     1.0513491    3.2042560   -0.0676222
H     1.0427344    4.2819499   -0.1896997
C     2.1942091    2.5487446    0.2579577
H     3.1168527    3.0912848    0.4334727
C     2.2216473    1.1336562    0.2934990
C     1.0486931    0.3945528    0.0302412
C     3.4483363    0.4614633    0.5573939
H     4.3095794    1.0606054    0.8334846
C     3.5427346   -0.8855926    0.4749463
H     4.4731467   -1.3939704    0.7038822
C     2.4490052   -1.6474447   -0.0196319
C     1.2150704   -1.0057258   -0.3013573
C     0.2531113   -1.7434440   -1.0216591
H    -0.6541356   -1.2535051   -1.3462847
C     0.4494193   -3.0628597   -1.3413779
H    -0.3083162   -3.5944309   -1.9054060
C     1.6251726   -3.7207967   -0.9552541
H     1.7670048   -4.7687404   -1.1927019
C     2.6109872   -3.0144177   -0.3183050
H     3.5525612   -3.4902813   -0.0646367
Bq         0.5119919029    -0.0786484388     0.4480004339
Bq         0.5124783800    -0.0301785228     0.4357354192
Bq         0.5129648571     0.0182913932     0.4234704045
Bq         0.5134513343     0.0667613091     0.4112053898
Bq         0.5139378114     0.1152312251     0.3989403750
Bq         0.5144242885     0.1637011411     0.3866753603
Bq         0.5149107656     0.2121710570     0.3744103456
Bq         0.5153972427     0.2606409730     0.3621453309
Bq         0.5158837198     0.3091108890     0.3498803162
Bq         0.5163701969     0.3575808049     0.3376153015
Bq         0.5168566740     0.4060507209     0.3253502868
Bq         0.5173431512     0.4545206369     0.3130852720
Bq         0.5178296283     0.5029905529     0.3008202573
Bq         0.5183161054     0.5514604688     0.2885552426
Bq         0.5188025825     0.5999303848     0.2762902279
Bq         0.5192890596     0.6484003008     0.2640252132
Bq         0.5197755367     0.6968702167     0.2517601985
Bq         0.5202620138     0.7453401327     0.2394951838
Bq         0.5207484909     0.7938100487     0.2272301690
Bq         0.5212349681     0.8422799646     0.2149651543
Bq         0.5217214452     0.8907498806     0.2027001396
Bq         0.5222079223     0.9392197966     0.1904351249
Bq         0.5226943994     0.9876897125     0.1781701102
Bq         0.5231808765     1.0361596285     0.1659050955
Bq         0.5236673536     1.0846295445     0.1536400808
Bq         0.5241538307     1.1330994605     0.1413750661
Bq         0.5246403078     1.1815693764     0.1291100513
Bq         0.5251267850     1.2300392924     0.1168450366
Bq         0.5256132621     1.2785092084     0.1045800219
Bq         0.5260997392     1.3269791243     0.0923150072
Bq         0.5265862163     1.3754490403     0.0800499925
Bq         0.5270726934     1.4239189563     0.0677849778
Bq         0.5275591705     1.4723888722     0.0555199631
Bq         0.5280456476     1.5208587882     0.0432549483
Bq         0.5285321247     1.5693287042     0.0309899336
Bq         0.5290186018     1.6177986202     0.0187249189
Bq         0.5295050790     1.6662685361     0.0064599042
Bq         0.5299915561     1.7147384521    -0.0058051105
Bq         0.5304780332     1.7632083681    -0.0180701252
Bq         0.5309645103     1.8116782840    -0.0303351399
Bq         0.5314509874     1.8601482000    -0.0426001547
Bq         0.5319374645     1.9086181160    -0.0548651694
Bq         0.5324239416     1.9570880319    -0.0671301841
Bq         0.5329104187     2.0055579479    -0.0793951988
Bq         0.5333968959     2.0540278639    -0.0916602135
Bq         0.5338833730     2.1024977798    -0.1039252282
Bq         0.5343698501     2.1509676958    -0.1161902429
Bq         0.5348563272     2.1994376118    -0.1284552576
Bq         0.5353428043     2.2479075278    -0.1407202724
Bq         0.5358292814     2.2963774437    -0.1529852871
Bq         0.5363157585     2.3448473597    -0.1652503018
Bq         0.5368022356     2.3933172757    -0.1775153165
Bq         0.5372887128     2.4417871916    -0.1897803312
Bq         0.5377751899     2.4902571076    -0.2020453459
Bq         0.5382616670     2.5387270236    -0.2143103606
Bq         0.5387481441     2.5871969395    -0.2265753754
Bq         0.5392346212     2.6356668555    -0.2388403901
Bq         0.5397210983     2.6841367715    -0.2511054048
Bq         0.5402075754     2.7326066875    -0.2633704195
Bq         0.5406940525     2.7810766034    -0.2756354342
Bq         0.5411805297     2.8295465194    -0.2879004489
Bq         0.5416670068     2.8780164354    -0.3001654636
Bq         0.5421534839     2.9264863513    -0.3124304783
Bq         0.5426399610     2.9749562673    -0.3246954931
Bq         0.5431264381     3.0234261833    -0.3369605078
Bq         0.5436129152     3.0718960992    -0.3492255225
Bq         0.5440993923     3.1203660152    -0.3614905372
Bq         0.5445858694     3.1688359312    -0.3737555519
Bq         0.5450723466     3.2173058471    -0.3860205666
Bq         0.5455588237     3.2657757631    -0.3982855813
Bq         0.5460453008     3.3142456791    -0.4105505961
Bq         0.5465317779     3.3627155951    -0.4228156108
Bq         0.5470182550     3.4111855110    -0.4350806255
Bq         0.5475047321     3.4596554270    -0.4473456402
Bq         0.5479912092     3.5081253430    -0.4596106549
Bq         0.5484776863     3.5565952589    -0.4718756696
Bq         0.5489641634     3.6050651749    -0.4841406843
Bq         0.5494506406     3.6535350909    -0.4964056991
Bq         0.5499371177     3.7020050068    -0.5086707138
Bq         0.5504235948     3.7504749228    -0.5209357285
Bq         0.5509100719     3.7989448388    -0.5332007432
Bq         0.5513965490     3.8474147548    -0.5454657579
Bq         0.5518830261     3.8958846707    -0.5577307726
Bq         0.5523695032     3.9443545867    -0.5699957873
Bq         0.5528559803     3.9928245027    -0.5822608020
Bq         0.5533424575     4.0412944186    -0.5945258168
Bq         0.5538289346     4.0897643346    -0.6067908315
Bq         0.5543154117     4.1382342506    -0.6190558462
Bq         0.5548018888     4.1867041665    -0.6313208609
Bq         0.5552883659     4.2351740825    -0.6435858756
Bq         0.5557748430     4.2836439985    -0.6558508903
Bq         0.5570878477    -0.5633475985     0.5726322130
Bq         0.5575743248    -0.5148776825     0.5603671982
Bq         0.5580608019    -0.4664077665     0.5481021835
Bq         0.5585472791    -0.4179378506     0.5358371688
Bq         0.5590337562    -0.3694679346     0.5235721541
Bq         0.5595202333    -0.3209980186     0.5113071394
Bq         0.5600067104    -0.2725281027     0.4990421247
Bq         0.5604931875    -0.2240581867     0.4867771100
Bq         0.5609796646    -0.1755882707     0.4745120953
Bq         0.5614661417    -0.1271183548     0.4622470805
Bq         0.5619526188    -0.0786484388     0.4499820658
Bq         0.5624390959    -0.0301785228     0.4377170511
Bq         0.5629255731     0.0182913932     0.4254520364
Bq         0.5634120502     0.0667613091     0.4131870217
Bq         0.5638985273     0.1152312251     0.4009220070
Bq         0.5643850044     0.1637011411     0.3886569923
Bq         0.5648714815     0.2121710570     0.3763919775
Bq         0.5653579586     0.2606409730     0.3641269628
Bq         0.5658444357     0.3091108890     0.3518619481
Bq         0.5663309128     0.3575808049     0.3395969334
Bq         0.5668173900     0.4060507209     0.3273319187
Bq         0.5673038671     0.4545206369     0.3150669040
Bq         0.5677903442     0.5029905529     0.3028018893
Bq         0.5682768213     0.5514604688     0.2905368745
Bq         0.5687632984     0.5999303848     0.2782718598
Bq         0.5692497755     0.6484003008     0.2660068451
Bq         0.5697362526     0.6968702167     0.2537418304
Bq         0.5702227297     0.7453401327     0.2414768157
Bq         0.5707092069     0.7938100487     0.2292118010
Bq         0.5711956840     0.8422799646     0.2169467863
Bq         0.5716821611     0.8907498806     0.2046817716
Bq         0.5721686382     0.9392197966     0.1924167568
Bq         0.5726551153     0.9876897125     0.1801517421
Bq         0.5731415924     1.0361596285     0.1678867274
Bq         0.5736280695     1.0846295445     0.1556217127
Bq         0.5741145466     1.1330994605     0.1433566980
Bq         0.5746010238     1.1815693764     0.1310916833
Bq         0.5750875009     1.2300392924     0.1188266686
Bq         0.5755739780     1.2785092084     0.1065616538
Bq         0.5760604551     1.3269791243     0.0942966391
Bq         0.5765469322     1.3754490403     0.0820316244
Bq         0.5770334093     1.4239189563     0.0697666097
Bq         0.5775198864     1.4723888722     0.0575015950
Bq         0.5780063635     1.5208587882     0.0452365803
Bq         0.5784928407     1.5693287042     0.0329715656
Bq         0.5789793178     1.6177986202     0.0207065508
Bq         0.5794657949     1.6662685361     0.0084415361
Bq         0.5799522720     1.7147384521    -0.0038234786
Bq         0.5804387491     1.7632083681    -0.0160884933
Bq         0.5809252262     1.8116782840    -0.0283535080
Bq         0.5814117033     1.8601482000    -0.0406185227
Bq         0.5818981804     1.9086181160    -0.0528835374
Bq         0.5823846575     1.9570880319    -0.0651485521
Bq         0.5828711347     2.0055579479    -0.0774135669
Bq         0.5833576118     2.0540278639    -0.0896785816
Bq         0.5838440889     2.1024977798    -0.1019435963
Bq         0.5843305660     2.1509676958    -0.1142086110
Bq         0.5848170431     2.1994376118    -0.1264736257
Bq         0.5853035202     2.2479075278    -0.1387386404
Bq         0.5857899973     2.2963774437    -0.1510036551
Bq         0.5862764744     2.3448473597    -0.1632686699
Bq         0.5867629516     2.3933172757    -0.1755336846
Bq         0.5872494287     2.4417871916    -0.1877986993
Bq         0.5877359058     2.4902571076    -0.2000637140
Bq         0.5882223829     2.5387270236    -0.2123287287
Bq         0.5887088600     2.5871969395    -0.2245937434
Bq         0.5891953371     2.6356668555    -0.2368587581
Bq         0.5896818142     2.6841367715    -0.2491237728
Bq         0.5901682913     2.7326066875    -0.2613887876
Bq         0.5906547685     2.7810766034    -0.2736538023
Bq         0.5911412456     2.8295465194    -0.2859188170
Bq         0.5916277227     2.8780164354    -0.2981838317
Bq         0.5921141998     2.9264863513    -0.3104488464
Bq         0.5926006769     2.9749562673    -0.3227138611
Bq         0.5930871540     3.0234261833    -0.3349788758
Bq         0.5935736311     3.0718960992    -0.3472438906
Bq         0.5940601082     3.1203660152    -0.3595089053
Bq         0.5945465854     3.1688359312    -0.3717739200
Bq         0.5950330625     3.2173058471    -0.3840389347
Bq         0.5955195396     3.2657757631    -0.3963039494
Bq         0.5960060167     3.3142456791    -0.4085689641
Bq         0.5964924938     3.3627155951    -0.4208339788
Bq         0.5969789709     3.4111855110    -0.4330989936
Bq         0.5974654480     3.4596554270    -0.4453640083
Bq         0.5979519251     3.5081253430    -0.4576290230
Bq         0.5984384023     3.5565952589    -0.4698940377
Bq         0.5989248794     3.6050651749    -0.4821590524
Bq         0.5994113565     3.6535350909    -0.4944240671
Bq         0.5998978336     3.7020050068    -0.5066890818
Bq         0.6003843107     3.7504749228    -0.5189540965
Bq         0.6008707878     3.7989448388    -0.5312191113
Bq         0.6013572649     3.8474147548    -0.5434841260
Bq         0.6018437420     3.8958846707    -0.5557491407
Bq         0.6023302192     3.9443545867    -0.5680141554
Bq         0.6028166963     3.9928245027    -0.5802791701
Bq         0.6033031734     4.0412944186    -0.5925441848
Bq         0.6037896505     4.0897643346    -0.6048091995
Bq         0.6042761276     4.1382342506    -0.6170742143
Bq         0.6047626047     4.1867041665    -0.6293392290
Bq         0.6052490818     4.2351740825    -0.6416042437
Bq         0.6057355589     4.2836439985    -0.6538692584
Bq         0.6070485636    -0.5633475985     0.5746138449
Bq         0.6075350407    -0.5148776825     0.5623488302
Bq         0.6080215179    -0.4664077665     0.5500838155
Bq         0.6085079950    -0.4179378506     0.5378188008
Bq         0.6089944721    -0.3694679346     0.5255537860
Bq         0.6094809492    -0.3209980186     0.5132887713
Bq         0.6099674263    -0.2725281027     0.5010237566
Bq         0.6104539034    -0.2240581867     0.4887587419

1
2
3
4
5
6
7
8
9
10
11
12
13
14
15
16
17
18
19
20
21
22
23
24
25
26
27
28
29
30
31
32
33
34
35
36
37
38
39
40
41
42
43
44
45
46
47
48
49
50
51
52
53
54
55
56
57
58
59
60
61
62
63
64
65
66
67
68
69
70
71
72
73
74
75
76
77
78
79
80
81
82
83
84
85
86
87
88
89
90
91
92
93
94
95
96
97
98
99
100
101
102
103
104
105
106
107
108
109
110
111
112
113
114
115
116
117
118
119
120
121
122
123
124
125
126
127
128
129
130
131
132
133
134
135
136
137
138
139
140
141
142
143
144
145
146
147
148
149
150
151
152
153
154
155
156
157
158
159
160
161
162
163
164
165
166
167
168
169
170
171
172
173
174
175
176
177
178
179
180
181
182
183
184
185
186
187
188
189
190
191
192
193
194
195
196
197
198
199
200
201
202
203
204
205
206
207
208
209
210
211
212
213
214
215
216
217
218
219
220
221
222
223
224
225
226
227
228
229
230
231
232
233
234
235
236

