20
Energy = -385.6153834578
C     2.4507615   -0.7117362    0.0000000 
C     2.4507615    0.7117362    0.0000000 
C     1.2513861    1.4113711    0.0000000 
C    -0.0000000    0.7228937    0.0000000 
C    -1.2513861    1.4113711    0.0000000 
C    -2.4507615    0.7117362    0.0000000 
C    -2.4507615   -0.7117362    0.0000000 
C    -1.2513861   -1.4113711    0.0000000 
C    -0.0000000   -0.7228937    0.0000000 
C     1.2513861   -1.4113711    0.0000000 
H     3.4087254   -1.2579121    0.0000000 
H     3.4087254    1.2579121    0.0000000 
H     1.2497208    2.5147224    0.0000000 
H    -1.2497208    2.5147224    0.0000000 
H    -3.4087254    1.2579121    0.0000000 
H    -3.4087254   -1.2579121    0.0000000 
H    -1.2497208   -2.5147224    0.0000000 
H     1.2497208   -2.5147224    0.0000000 
x -1.2340493333333333 0.0 0.0
x 1.2340493333333333 0.0 0.0

