%OldChk=/home/aartigas/chk/5_helicene_spe.chk
%nproc=8
%mem=1000MB
#P rb3lyp/6-311+g** NMR Guess=Read geom=connectivity

Title

0 1
C        0.6532410000     3.2578590000    -0.2025100000
C       -0.6532430000     3.2578600000     0.2025100000
C        1.3724950000     2.0329560000    -0.3208070000
C       -1.3724950000     2.0329560000     0.3208070000
C        0.7224740000     0.7956660000    -0.0503880000
C       -0.7224740000     0.7956670000     0.0503870000
C        2.7603850000     2.0539270000    -0.6742680000
C        3.5088660000     0.9139160000    -0.6713620000
C        2.9552260000    -0.3096220000    -0.1774790000
C        1.5747220000    -0.3611140000     0.1970940000
H        1.1834270000     4.1957400000    -0.3845990000
H       -1.1834290000     4.1957400000     0.3845990000
H        3.2062830000     3.0124230000    -0.9513920000
H        4.5600230000     0.9329560000    -0.9693330000
C        3.7830200000    -1.4430980000     0.0283090000
C        1.1374270000    -1.5075330000     0.9121090000
C        1.9736910000    -2.5843490000     1.1380620000
C        3.3018530000    -2.5715880000     0.6611770000
H        4.8257540000    -1.3912300000    -0.2954840000
H        0.1246520000    -1.5327880000     1.3084720000
H        1.6035860000    -3.4456820000     1.6989770000
H        3.9527420000    -3.4335260000     0.8251340000
C       -3.5088660000     0.9139150000     0.6713620000
C       -2.7603860000     2.0539260000     0.6742680000
C       -2.9552260000    -0.3096230000     0.1774790000
C       -1.5747220000    -0.3611140000    -0.1970940000
C       -3.7830200000    -1.4430990000    -0.0283090000
C       -3.3018520000    -2.5715890000    -0.6611770000
C       -1.9736900000    -2.5843490000    -1.1380610000
C       -1.1374260000    -1.5075340000    -0.9121090000
H       -4.5600220000     0.9329540000     0.9693340000
H       -3.2062830000     3.0124210000     0.9513920000
H       -4.8257540000    -1.3912320000     0.2954840000
H       -3.9527410000    -3.4335280000    -0.8251340000
H       -1.6035850000    -3.4456820000    -1.6989760000
H       -0.1246520000    -1.5327880000    -1.3084710000
Bq         2.5837326892    -1.4799210869    -0.5315661947

1
2
3
4
5
6
7
8
9
10
11
12
13
14
15
16
17
18
19
20
21
22
23
24
25
26
27
28
29
30
31
32
33
34
35
36
37

