%OldChk=/home/aartigas/chk/5_helicene_spe.chk
%nproc=8
%mem=1000MB
#P rb3lyp/6-311+g** NMR Guess=Read geom=connectivity

Title

0 1
C        0.6532410000     3.2578590000    -0.2025100000
C       -0.6532430000     3.2578600000     0.2025100000
C        1.3724950000     2.0329560000    -0.3208070000
C       -1.3724950000     2.0329560000     0.3208070000
C        0.7224740000     0.7956660000    -0.0503880000
C       -0.7224740000     0.7956670000     0.0503870000
C        2.7603850000     2.0539270000    -0.6742680000
C        3.5088660000     0.9139160000    -0.6713620000
C        2.9552260000    -0.3096220000    -0.1774790000
C        1.5747220000    -0.3611140000     0.1970940000
H        1.1834270000     4.1957400000    -0.3845990000
H       -1.1834290000     4.1957400000     0.3845990000
H        3.2062830000     3.0124230000    -0.9513920000
H        4.5600230000     0.9329560000    -0.9693330000
C        3.7830200000    -1.4430980000     0.0283090000
C        1.1374270000    -1.5075330000     0.9121090000
C        1.9736910000    -2.5843490000     1.1380620000
C        3.3018530000    -2.5715880000     0.6611770000
H        4.8257540000    -1.3912300000    -0.2954840000
H        0.1246520000    -1.5327880000     1.3084720000
H        1.6035860000    -3.4456820000     1.6989770000
H        3.9527420000    -3.4335260000     0.8251340000
C       -3.5088660000     0.9139150000     0.6713620000
C       -2.7603860000     2.0539260000     0.6742680000
C       -2.9552260000    -0.3096230000     0.1774790000
C       -1.5747220000    -0.3611140000    -0.1970940000
C       -3.7830200000    -1.4430990000    -0.0283090000
C       -3.3018520000    -2.5715890000    -0.6611770000
C       -1.9736900000    -2.5843490000    -1.1380610000
C       -1.1374260000    -1.5075340000    -0.9121090000
H       -4.5600220000     0.9329540000     0.9693340000
H       -3.2062830000     3.0124210000     0.9513920000
H       -4.8257540000    -1.3912320000     0.2954840000
H       -3.9527410000    -3.4335280000    -0.8251340000
H       -1.6035850000    -3.4456820000    -1.6989760000
H       -0.1246520000    -1.5327880000    -1.3084710000
Bq         3.0393815740    -3.8088893952     1.5808375000
Bq         3.1409807019    -3.7587862500     1.5808375000
Bq         3.2351708624    -3.6958503969     1.5808375000
Bq         3.3203404357    -3.6211586857     1.5808375000
Bq         2.8285584774    -2.0928106350     1.4635209324
Bq         2.4688503816    -3.9011853508     1.4635209324
Bq         2.5873775226    -3.9247618650     1.4635209324
Bq         2.7079680000    -3.9326657825     1.4635209324
Bq         2.8285584774    -3.9247618650     1.4635209324
Bq         2.9470856184    -3.9011853508     1.4635209324
Bq         3.0615213906    -3.8623396406     1.4635209324
Bq         3.1699077663    -3.8088893952     1.4635209324
Bq         2.4579680000    -3.9417989519     1.3396565451
Bq         2.5818893799    -3.9664484469     1.3396565451
Bq         2.7079680000    -3.9747120763     1.3396565451
Bq         2.8340466201    -3.9664484469     1.3396565451
Bq         2.9579680000    -3.9417989519     1.3396565451
Bq         3.0776118106    -3.9011853508     1.3396565451
Bq         3.1909309131    -3.8453025537     1.3396565451
Bq         2.4513631877    -3.9664484469     1.2113636922
Bq         2.5785584774    -3.9917491631     1.2113636922
Bq         2.7079680000    -4.0002311114     1.2113636922
Bq         2.8373775226    -3.9917491631     1.2113636922
Bq         2.9645728123    -3.9664484469     1.2113636922
Bq         3.0873775226    -3.9247618650     1.2113636922
Bq         2.3252845676    -3.9326657825     1.0808375000
Bq         2.4491489549    -3.9747120763     1.0808375000
Bq         2.5774418078    -4.0002311114     1.0808375000
Bq         2.7079680000    -4.0087862500     1.0808375000
Bq         2.8384941922    -4.0002311114     1.0808375000
Bq         2.9667870451    -3.9747120763     1.0808375000
Bq         3.0906514324    -3.9326657825     1.0808375000
Bq         2.2122455693    -3.8674026864     0.9503113078
Bq         2.3285584774    -3.9247618650     0.9503113078
Bq         2.4513631877    -3.9664484469     0.9503113078
Bq         2.5785584774    -3.9917491631     0.9503113078
Bq         2.7079680000    -4.0002311114     0.9503113078
Bq         2.8373775226    -3.9917491631     0.9503113078
Bq         2.9645728123    -3.9664484469     0.9503113078
Bq         3.0873775226    -3.9247618650     0.9503113078
Bq         2.0249552981    -3.6917989519     0.8220184549
Bq         2.1199496137    -3.7751067308     0.8220184549
Bq         2.2250050869    -3.8453025537     0.8220184549
Bq         2.3383241894    -3.9011853508     0.8220184549
Bq         2.4579680000    -3.9417989519     0.8220184549
Bq         2.5818893799    -3.9664484469     0.8220184549
Bq         2.7079680000    -3.9747120763     0.8220184549
Bq         2.8340466201    -3.9664484469     0.8220184549
Bq         2.9579680000    -3.9417989519     0.8220184549
Bq         1.9750050869    -3.5712084744     0.6981540676
Bq         2.0546865176    -3.6620677324     0.6981540676
Bq         2.1455457756    -3.7417491631     0.6981540676
Bq         2.2460282337    -3.8088893952     0.6981540676
Bq         2.3544146094    -3.8623396406     0.6981540676
Bq         2.4688503816    -3.9011853508     0.6981540676
Bq         2.5873775226    -3.9247618650     0.6981540676
Bq         2.7079680000    -3.9326657825     0.6981540676
Bq         2.8285584774    -3.9247618650     0.6981540676
Bq         2.9470856184    -3.9011853508     0.6981540676
Bq         1.9579680000    -3.4417989519     0.5808375000
Bq         2.0209038531    -3.5359891124     0.5808375000
Bq         2.0955955643    -3.6211586857     0.5808375000
Bq         2.1807651376    -3.6958503969     0.5808375000
Bq         2.2749552981    -3.7587862500     0.5808375000
Bq         2.3765544260    -3.8088893952     0.5808375000
Bq         2.4838241320    -3.8453025537     0.5808375000
Bq         2.5949290017    -3.8674026864     0.5808375000
Bq         2.7079680000    -3.8748116538     0.5808375000
Bq         2.8210069983    -3.8674026864     0.5808375000
Bq         2.9321118680    -3.8453025537     0.5808375000
Bq         3.0393815740    -3.8088893952     0.5808375000
Bq         2.0209038531    -3.4054629201     0.4720760710
Bq         2.0785584774    -3.4917491631     0.4720760710
Bq         2.1469824732    -3.5697717768     0.4720760710
Bq         2.2250050869    -3.6381957726     0.4720760710
Bq         2.3112913299    -3.6958503969     0.4720760710
Bq         2.4043648207    -3.7417491631     0.4720760710
Bq         2.5026330460    -3.7751067308     0.4720760710
Bq         2.6044146094    -3.7953523425     0.4720760710
Bq         2.7079680000    -3.8021395903     0.4720760710
Bq         2.8115213906    -3.7953523425     0.4720760710
Bq         2.9133029540    -3.7751067308     0.4720760710
Bq         3.0115711793    -3.7417491631     0.4720760710
Bq         2.0546865176    -3.2793843001     0.3737307188
Bq         2.0955955643    -3.3623396406     0.3737307188
Bq         2.1469824732    -3.4392455846     0.3737307188
Bq         2.2079680000    -3.5087862500     0.3737307188
Bq         2.2775086654    -3.5697717768     0.3737307188
Bq         2.3544146094    -3.6211586857     0.3737307188
Bq         2.4373699499    -3.6620677324     0.3737307188
Bq         2.5249552981    -3.6917989519     0.3737307188
Bq         2.6156720444    -3.7098436346     0.3737307188
Bq         2.7079680000    -3.7158930312     0.3737307188
Bq         2.8002639556    -3.7098436346     0.3737307188
Bq         2.8909807019    -3.6917989519     0.3737307188
Bq         2.9785660501    -3.6620677324     0.3737307188
Bq         3.0615213906    -3.6211586857     0.3737307188
Bq         2.1199496137    -3.1663453018     0.2874841597
Bq         2.1455457756    -3.2417491631     0.2874841597
Bq         2.1807651376    -3.3131669645     0.2874841597
Bq         2.2250050869    -3.3793767274     0.2874841597
Bq         2.2775086654    -3.4392455846     0.2874841597
Bq         2.3373775226    -3.4917491631     0.2874841597
Bq         2.4035872855    -3.5359891124     0.2874841597
Bq         2.4750050869    -3.5712084744     0.2874841597
Bq         2.5504089482    -3.5968046363     0.2874841597
Bq         2.6285086887    -3.6123396406     0.2874841597
Bq         2.7079680000    -3.6175476790     0.2874841597
Bq         2.7874273113    -3.6123396406     0.2874841597
Bq         2.8655270518    -3.5968046363     0.2874841597
Bq         2.9409309131    -3.5712084744     0.2874841597
Bq         3.0123487145    -3.5359891124     0.2874841597
Bq         3.0785584774    -3.4917491631     0.2874841597
Bq         2.4035872855    -2.6121095799     0.2148120962
Bq         2.3544146094    -2.6552328594     0.2148120962
Bq         2.2250050869    -2.8793767274     0.2148120962
Bq         2.2122455693    -2.9435231539     0.2148120962
Bq         2.2079680000    -3.0087862500     0.2148120962
Bq         2.2122455693    -3.0740493461     0.2148120962
Bq         2.2250050869    -3.1381957726     0.2148120962
Bq         2.2460282337    -3.2001279662     0.2148120962
Bq         2.2749552981    -3.2587862500     0.2148120962
Bq         2.3112913299    -3.3131669645     0.2148120962
Bq         2.3544146094    -3.3623396406     0.2148120962
Bq         2.4035872855    -3.4054629201     0.2148120962
Bq         2.4579680000    -3.4417989519     0.2148120962
Bq         2.5166262838    -3.4707260163     0.2148120962
Bq         2.5785584774    -3.4917491631     0.2148120962
Bq         2.6427049039    -3.5045086807     0.2148120962
Bq         2.7079680000    -3.5087862500     0.2148120962
Bq         2.7732310961    -3.5045086807     0.2148120962
Bq         2.8373775226    -3.4917491631     0.2148120962
Bq         2.8993097162    -3.4707260163     0.2148120962
Bq         2.9579680000    -3.4417989519     0.2148120962
Bq         2.4373699499    -2.7381881999     0.1569579675
Bq         2.4043648207    -2.7758233369     0.1569579675
Bq         2.3765544260    -2.8174445338     0.1569579675
Bq         2.3544146094    -2.8623396406     0.1569579675
Bq         2.3383241894    -2.9097404895     0.1569579675
Bq         2.3285584774    -2.9588360387     0.1569579675
Bq         2.3252845676    -3.0087862500     0.1569579675
Bq         2.3285584774    -3.0587364613     0.1569579675
Bq         2.3383241894    -3.1078320105     0.1569579675
Bq         2.3544146094    -3.1552328594     0.1569579675
Bq         2.3765544260    -3.2001279662     0.1569579675
Bq         2.4043648207    -3.2417491631     0.1569579675
Bq         2.4373699499    -3.2793843001     0.1569579675
Bq         2.4750050869    -3.3123894293     0.1569579675
Bq         2.5166262838    -3.3401998240     0.1569579675
Bq         2.5615213906    -3.3623396406     0.1569579675
Bq         2.6089222395    -3.3784300606     0.1569579675
Bq         2.6580177887    -3.3881957726     0.1569579675
Bq         2.7079680000    -3.3914696824     0.1569579675
Bq         2.7579182113    -3.3881957726     0.1569579675
Bq         2.8070137605    -3.3784300606     0.1569579675
Bq         2.8544146094    -3.3623396406     0.1569579675
Bq         2.8993097162    -3.3401998240     0.1569579675
Bq         2.5026330460    -2.8512271982     0.1149116737
Bq         2.4838241320    -2.8793767274     0.1149116737
Bq         2.4688503816    -2.9097404895     0.1149116737
Bq         2.4579680000    -2.9417989519     0.1149116737
Bq         2.4513631877    -2.9750035856     0.1149116737
Bq         2.4491489549    -3.0087862500     0.1149116737
Bq         2.4513631877    -3.0425689144     0.1149116737
Bq         2.4579680000    -3.0757735481     0.1149116737
Bq         2.4688503816    -3.1078320105     0.1149116737
Bq         2.4838241320    -3.1381957726     0.1149116737
Bq         2.5026330460    -3.1663453018     0.1149116737
Bq         2.5249552981    -3.1917989519     0.1149116737
Bq         2.5504089482    -3.2141212040     0.1149116737
Bq         2.5785584774    -3.2329301180     0.1149116737
Bq         2.6089222395    -3.2479038684     0.1149116737
Bq         2.6409807019    -3.2587862500     0.1149116737
Bq         2.6741853356    -3.2653910623     0.1149116737
Bq         2.7079680000    -3.2676052951     0.1149116737
Bq         2.7417506644    -3.2653910623     0.1149116737
Bq         2.7749552981    -3.2587862500     0.1149116737
Bq         2.8070137605    -3.2479038684     0.1149116737
Bq         2.5818893799    -2.9750035856     0.0893926386
Bq         2.5785584774    -2.9917491631     0.0893926386
Bq         2.5774418078    -3.0087862500     0.0893926386
Bq         2.5785584774    -3.0258233369     0.0893926386
Bq         2.5818893799    -3.0425689144     0.0893926386
Bq         2.5873775226    -3.0587364613     0.0893926386
Bq         2.5949290017    -3.0740493461     0.0893926386
Bq         2.6044146094    -3.0882455613     0.0893926386
Bq         2.6156720444    -3.1010822056     0.0893926386
Bq         2.6285086887    -3.1123396406     0.0893926386
Bq         2.6427049039    -3.1218252483     0.0893926386
Bq         2.6580177887    -3.1293767274     0.0893926386
Bq         2.6741853356    -3.1348648701     0.0893926386
Bq         2.6909309131    -3.1381957726     0.0893926386
Bq         2.7079680000    -3.1393124422     0.0893926386
Bq         4.0963684422    -2.2098605000     1.2962288614
Bq         4.0952517726    -2.1928234131     1.2962288614
Bq         4.0919208701    -2.1760778356     1.2962288614
Bq         4.0864327274    -2.1599102887     1.2962288614
Bq         4.0788812483    -2.1445974039     1.2962288614
Bq         4.0693956406    -2.1304011887     1.2962288614
Bq         4.0581382056    -2.1175645444     1.2962288614

1
2
3
4
5
6
7
8
9
10
11
12
13
14
15
16
17
18
19
20
21
22
23
24
25
26
27
28
29
30
31
32
33
34
35
36
37
38
39
40
41
42
43
44
45
46
47
48
49
50
51
52
53
54
55
56
57
58
59
60
61
62
63
64
65
66
67
68
69
70
71
72
73
74
75
76
77
78
79
80
81
82
83
84
85
86
87
88
89
90
91
92
93
94
95
96
97
98
99
100
101
102
103
104
105
106
107
108
109
110
111
112
113
114
115
116
117
118
119
120
121
122
123
124
125
126
127
128
129
130
131
132
133
134
135
136
137
138
139
140
141
142
143
144
145
146
147
148
149
150
151
152
153
154
155
156
157
158
159
160
161
162
163
164
165
166
167
168
169
170
171
172
173
174
175
176
177
178
179
180
181
182
183
184
185
186
187
188
189
190
191
192
193
194
195
196
197
198
199
200
201
202
203
204
205
206
207
208
209
210
211
212
213
214
215
216
217
218
219
220
221
222
223
224
225
226
227
228
229
230
231
232
233
234
235
236

