%OldChk=/home/aartigas/chk/5_helicene_spe.chk
%nproc=8
%mem=1000MB
#P rb3lyp/6-311+g** NMR Guess=Read geom=connectivity

Title

0 1
C        0.6532410000     3.2578590000    -0.2025100000
C       -0.6532430000     3.2578600000     0.2025100000
C        1.3724950000     2.0329560000    -0.3208070000
C       -1.3724950000     2.0329560000     0.3208070000
C        0.7224740000     0.7956660000    -0.0503880000
C       -0.7224740000     0.7956670000     0.0503870000
C        2.7603850000     2.0539270000    -0.6742680000
C        3.5088660000     0.9139160000    -0.6713620000
C        2.9552260000    -0.3096220000    -0.1774790000
C        1.5747220000    -0.3611140000     0.1970940000
H        1.1834270000     4.1957400000    -0.3845990000
H       -1.1834290000     4.1957400000     0.3845990000
H        3.2062830000     3.0124230000    -0.9513920000
H        4.5600230000     0.9329560000    -0.9693330000
C        3.7830200000    -1.4430980000     0.0283090000
C        1.1374270000    -1.5075330000     0.9121090000
C        1.9736910000    -2.5843490000     1.1380620000
C        3.3018530000    -2.5715880000     0.6611770000
H        4.8257540000    -1.3912300000    -0.2954840000
H        0.1246520000    -1.5327880000     1.3084720000
H        1.6035860000    -3.4456820000     1.6989770000
H        3.9527420000    -3.4335260000     0.8251340000
C       -3.5088660000     0.9139150000     0.6713620000
C       -2.7603860000     2.0539260000     0.6742680000
C       -2.9552260000    -0.3096230000     0.1774790000
C       -1.5747220000    -0.3611140000    -0.1970940000
C       -3.7830200000    -1.4430990000    -0.0283090000
C       -3.3018520000    -2.5715890000    -0.6611770000
C       -1.9736900000    -2.5843490000    -1.1380610000
C       -1.1374260000    -1.5075340000    -0.9121090000
H       -4.5600220000     0.9329540000     0.9693340000
H       -3.2062830000     3.0124210000     0.9513920000
H       -4.8257540000    -1.3912320000     0.2954840000
H       -3.9527410000    -3.4335280000    -0.8251340000
H       -1.6035850000    -3.4456820000    -1.6989760000
H       -0.1246520000    -1.5327880000    -1.3084710000
Bq        -2.3765534260    -2.8174452838    -0.1569574675
Bq        -2.4043638207    -2.7758240869    -0.1569574675
Bq        -2.4373689499    -2.7381889499    -0.1569574675
Bq        -2.8993087162    -3.3402005740    -0.1569574675
Bq        -2.8544136094    -3.3623403906    -0.1569574675
Bq        -2.8070127605    -3.3784308106    -0.1569574675
Bq        -2.7579172113    -3.3881965226    -0.1569574675
Bq        -2.7079670000    -3.3914704324    -0.1569574675
Bq        -2.6580167887    -3.3881965226    -0.1569574675
Bq        -2.6089212395    -3.3784308106    -0.1569574675
Bq        -2.5615203906    -3.3623403906    -0.1569574675
Bq        -2.5166252838    -3.3402005740    -0.1569574675
Bq        -2.4750040869    -3.3123901793    -0.1569574675
Bq        -2.4373689499    -3.2793850501    -0.1569574675
Bq        -2.4043638207    -3.2417499131    -0.1569574675
Bq        -2.3765534260    -3.2001287162    -0.1569574675
Bq        -2.3544136094    -3.1552336094    -0.1569574675
Bq        -2.3383231894    -3.1078327605    -0.1569574675
Bq        -2.3285574774    -3.0587372113    -0.1569574675
Bq        -2.2079670000    -3.0087870000    -0.2148115962
Bq        -2.2122445693    -2.9435239039    -0.2148115962
Bq        -2.2250040869    -2.8793774774    -0.2148115962
Bq        -2.3544136094    -2.6552336094    -0.2148115962
Bq        -2.4035862855    -2.6121103299    -0.2148115962
Bq        -2.9579670000    -3.4417997019    -0.2148115962
Bq        -2.8993087162    -3.4707267663    -0.2148115962
Bq        -2.8373765226    -3.4917499131    -0.2148115962
Bq        -2.7732300961    -3.5045094307    -0.2148115962
Bq        -2.7079670000    -3.5087870000    -0.2148115962
Bq        -2.6427039039    -3.5045094307    -0.2148115962
Bq        -2.5785574774    -3.4917499131    -0.2148115962
Bq        -2.5166252838    -3.4707267663    -0.2148115962
Bq        -2.4579670000    -3.4417997019    -0.2148115962
Bq        -2.4035862855    -3.4054636701    -0.2148115962
Bq        -2.3544136094    -3.3623403906    -0.2148115962
Bq        -2.3112903299    -3.3131677145    -0.2148115962
Bq        -2.2749542981    -3.2587870000    -0.2148115962
Bq        -2.2460272337    -3.2001287162    -0.2148115962
Bq        -2.2250040869    -3.1381965226    -0.2148115962
Bq        -2.2122445693    -3.0740500961    -0.2148115962
Bq        -3.0785574774    -3.4917499131    -0.2874836597
Bq        -3.0123477145    -3.5359898624    -0.2874836597
Bq        -2.9409299131    -3.5712092244    -0.2874836597
Bq        -2.8655260518    -3.5968053863    -0.2874836597
Bq        -2.7874263113    -3.6123403906    -0.2874836597
Bq        -2.7079670000    -3.6175484290    -0.2874836597
Bq        -2.6285076887    -3.6123403906    -0.2874836597
Bq        -2.5504079482    -3.5968053863    -0.2874836597
Bq        -2.4750040869    -3.5712092244    -0.2874836597
Bq        -2.4035862855    -3.5359898624    -0.2874836597
Bq        -2.3373765226    -3.4917499131    -0.2874836597
Bq        -2.2775076654    -3.4392463346    -0.2874836597
Bq        -2.2250040869    -3.3793774774    -0.2874836597
Bq        -2.1807641376    -3.3131677145    -0.2874836597
Bq        -2.1455447756    -3.2417499131    -0.2874836597
Bq        -2.1199486137    -3.1663460518    -0.2874836597
Bq        -3.0615203906    -3.6211594357    -0.3737302188
Bq        -2.9785650501    -3.6620684824    -0.3737302188
Bq        -2.8909797019    -3.6917997019    -0.3737302188
Bq        -2.8002629556    -3.7098443846    -0.3737302188
Bq        -2.7079670000    -3.7158937812    -0.3737302188
Bq        -2.6156710444    -3.7098443846    -0.3737302188
Bq        -2.5249542981    -3.6917997019    -0.3737302188
Bq        -2.4373689499    -3.6620684824    -0.3737302188
Bq        -2.3544136094    -3.6211594357    -0.3737302188
Bq        -2.2775076654    -3.5697725268    -0.3737302188
Bq        -2.2079670000    -3.5087870000    -0.3737302188
Bq        -2.1469814732    -3.4392463346    -0.3737302188
Bq        -2.0955945643    -3.3623403906    -0.3737302188
Bq        -2.0546855176    -3.2793850501    -0.3737302188
Bq        -3.0115701793    -3.7417499131    -0.4720755710
Bq        -2.9133019540    -3.7751074808    -0.4720755710
Bq        -2.8115203906    -3.7953530925    -0.4720755710
Bq        -2.7079670000    -3.8021403403    -0.4720755710
Bq        -2.6044136094    -3.7953530925    -0.4720755710
Bq        -2.5026320460    -3.7751074808    -0.4720755710
Bq        -2.4043638207    -3.7417499131    -0.4720755710
Bq        -2.3112903299    -3.6958511469    -0.4720755710
Bq        -2.2250040869    -3.6381965226    -0.4720755710
Bq        -2.1469814732    -3.5697725268    -0.4720755710
Bq        -2.0785574774    -3.4917499131    -0.4720755710
Bq        -2.0209028531    -3.4054636701    -0.4720755710
Bq        -3.0393805740    -3.8088901452    -0.5808370000
Bq        -2.9321108680    -3.8453033037    -0.5808370000
Bq        -2.8210059983    -3.8674034364    -0.5808370000
Bq        -2.7079670000    -3.8748124038    -0.5808370000
Bq        -2.5949280017    -3.8674034364    -0.5808370000
Bq        -2.4838231320    -3.8453033037    -0.5808370000
Bq        -2.3765534260    -3.8088901452    -0.5808370000
Bq        -2.2749542981    -3.7587870000    -0.5808370000
Bq        -2.1807641376    -3.6958511469    -0.5808370000
Bq        -2.0955945643    -3.6211594357    -0.5808370000
Bq        -2.0209028531    -3.5359898624    -0.5808370000
Bq        -1.9579670000    -3.4417997019    -0.5808370000
Bq        -2.9470846184    -3.9011861008    -0.6981535676
Bq        -2.8285574774    -3.9247626150    -0.6981535676
Bq        -2.7079670000    -3.9326665325    -0.6981535676
Bq        -2.5873765226    -3.9247626150    -0.6981535676
Bq        -2.4688493816    -3.9011861008    -0.6981535676
Bq        -2.3544136094    -3.8623403906    -0.6981535676
Bq        -2.2460272337    -3.8088901452    -0.6981535676
Bq        -2.1455447756    -3.7417499131    -0.6981535676
Bq        -2.0546855176    -3.6620684824    -0.6981535676
Bq        -1.9750040869    -3.5712092244    -0.6981535676
Bq        -2.9579670000    -3.9417997019    -0.8220179549
Bq        -2.8340456201    -3.9664491969    -0.8220179549
Bq        -2.7079670000    -3.9747128263    -0.8220179549
Bq        -2.5818883799    -3.9664491969    -0.8220179549
Bq        -2.4579670000    -3.9417997019    -0.8220179549
Bq        -2.3383231894    -3.9011861008    -0.8220179549
Bq        -2.2250040869    -3.8453033037    -0.8220179549
Bq        -2.1199486137    -3.7751074808    -0.8220179549
Bq        -2.0249542981    -3.6917997019    -0.8220179549
Bq        -3.0873765226    -3.9247626150    -0.9503108078
Bq        -2.9645718123    -3.9664491969    -0.9503108078
Bq        -2.8373765226    -3.9917499131    -0.9503108078
Bq        -2.7079670000    -4.0002318614    -0.9503108078
Bq        -2.5785574774    -3.9917499131    -0.9503108078
Bq        -2.4513621877    -3.9664491969    -0.9503108078
Bq        -2.3285574774    -3.9247626150    -0.9503108078
Bq        -2.2122445693    -3.8674034364    -0.9503108078
Bq        -3.0906504324    -3.9326665325    -1.0808370000
Bq        -2.9667860451    -3.9747128263    -1.0808370000
Bq        -2.8384931922    -4.0002318614    -1.0808370000
Bq        -2.7079670000    -4.0087870000    -1.0808370000
Bq        -2.5774408078    -4.0002318614    -1.0808370000
Bq        -2.4491479549    -3.9747128263    -1.0808370000
Bq        -2.3252835676    -3.9326665325    -1.0808370000
Bq        -3.0873765226    -3.9247626150    -1.2113631922
Bq        -2.9645718123    -3.9664491969    -1.2113631922
Bq        -2.8373765226    -3.9917499131    -1.2113631922
Bq        -2.7079670000    -4.0002318614    -1.2113631922
Bq        -2.5785574774    -3.9917499131    -1.2113631922
Bq        -2.4513621877    -3.9664491969    -1.2113631922
Bq        -3.1909299131    -3.8453033037    -1.3396560451
Bq        -3.0776108106    -3.9011861008    -1.3396560451
Bq        -2.9579670000    -3.9417997019    -1.3396560451
Bq        -2.8340456201    -3.9664491969    -1.3396560451
Bq        -2.7079670000    -3.9747128263    -1.3396560451
Bq        -2.5818883799    -3.9664491969    -1.3396560451
Bq        -2.4579670000    -3.9417997019    -1.3396560451
Bq        -2.8285574774    -2.0928113850    -1.4635204324
Bq        -3.1699067663    -3.8088901452    -1.4635204324
Bq        -3.0615203906    -3.8623403906    -1.4635204324
Bq        -2.9470846184    -3.9011861008    -1.4635204324
Bq        -2.8285574774    -3.9247626150    -1.4635204324
Bq        -2.7079670000    -3.9326665325    -1.4635204324
Bq        -2.5873765226    -3.9247626150    -1.4635204324
Bq        -2.4688493816    -3.9011861008    -1.4635204324
Bq        -2.8210059983    -2.1501705636    -1.5808370000
Bq        -2.9321108680    -2.1722706963    -1.5808370000
Bq        -3.0393805740    -2.2086838548    -1.5808370000
Bq        -3.5665834364    -2.8957480017    -1.5808370000
Bq        -3.3203394357    -3.6211594357    -1.5808370000
Bq        -3.2351698624    -3.6958511469    -1.5808370000
Bq        -3.1409797019    -3.7587870000    -1.5808370000
Bq        -3.0393805740    -3.8088901452    -1.5808370000
Bq        -2.9321108680    -3.8453033037    -1.5808370000
Bq        -2.8210059983    -3.8674034364    -1.5808370000
Bq        -2.7079670000    -3.8748124038    -1.5808370000
Bq        -2.5949280017    -3.8674034364    -1.5808370000
Bq        -2.8115203906    -2.2222209075    -1.6895984290
Bq        -2.9133019540    -2.2424665192    -1.6895984290
Bq        -3.0115701793    -2.2758240869    -1.6895984290
Bq        -3.1046436701    -2.3217228531    -1.6895984290
Bq        -3.1909299131    -2.3793774774    -1.6895984290
Bq        -3.2689525268    -2.4478014732    -1.6895984290
Bq        -3.3373765226    -2.5258240869    -1.6895984290
Bq        -3.3950311469    -2.6121103299    -1.6895984290
Bq        -3.4409299131    -2.7051838207    -1.6895984290
Bq        -3.4742874808    -2.8034520460    -1.6895984290
Bq        -3.4945330925    -2.9052336094    -1.6895984290
Bq        -3.5013203403    -3.0087870000    -1.6895984290
Bq        -3.4945330925    -3.1123403906    -1.6895984290
Bq        -3.4742874808    -3.2141219540    -1.6895984290
Bq        -3.4409299131    -3.3123901793    -1.6895984290
Bq        -3.3950311469    -3.4054636701    -1.6895984290
Bq        -3.3373765226    -3.4917499131    -1.6895984290
Bq        -3.2689525268    -3.5697725268    -1.6895984290
Bq        -3.1909299131    -3.6381965226    -1.6895984290
Bq        -3.1046436701    -3.6958511469    -1.6895984290
Bq        -3.0115701793    -3.7417499131    -1.6895984290
Bq        -2.9133019540    -3.7751074808    -1.6895984290
Bq        -2.8115203906    -3.7953530925    -1.6895984290
Bq        -2.7079670000    -3.8021403403    -1.6895984290
Bq        -2.6044136094    -3.7953530925    -1.6895984290
Bq        -2.7079670000    -2.3016802188    -1.7879437812
Bq        -2.8002629556    -2.3077296154    -1.7879437812
Bq        -2.8909797019    -2.3257742981    -1.7879437812
Bq        -2.9785650501    -2.3555055176    -1.7879437812
Bq        -3.0615203906    -2.3964145643    -1.7879437812
Bq        -3.1384263346    -2.4478014732    -1.7879437812
Bq        -3.2079670000    -2.5087870000    -1.7879437812
Bq        -3.2689525268    -2.5783276654    -1.7879437812
Bq        -3.3203394357    -2.6552336094    -1.7879437812
Bq        -3.3612484824    -2.7381889499    -1.7879437812
Bq        -3.3909797019    -2.8257742981    -1.7879437812
Bq        -3.4090243846    -2.9164910444    -1.7879437812
Bq        -3.4150737812    -3.0087870000    -1.7879437812
Bq        -3.4090243846    -3.1010829556    -1.7879437812

1
2
3
4
5
6
7
8
9
10
11
12
13
14
15
16
17
18
19
20
21
22
23
24
25
26
27
28
29
30
31
32
33
34
35
36
37
38
39
40
41
42
43
44
45
46
47
48
49
50
51
52
53
54
55
56
57
58
59
60
61
62
63
64
65
66
67
68
69
70
71
72
73
74
75
76
77
78
79
80
81
82
83
84
85
86
87
88
89
90
91
92
93
94
95
96
97
98
99
100
101
102
103
104
105
106
107
108
109
110
111
112
113
114
115
116
117
118
119
120
121
122
123
124
125
126
127
128
129
130
131
132
133
134
135
136
137
138
139
140
141
142
143
144
145
146
147
148
149
150
151
152
153
154
155
156
157
158
159
160
161
162
163
164
165
166
167
168
169
170
171
172
173
174
175
176
177
178
179
180
181
182
183
184
185
186
187
188
189
190
191
192
193
194
195
196
197
198
199
200
201
202
203
204
205
206
207
208
209
210
211
212
213
214
215
216
217
218
219
220
221
222
223
224
225
226
227
228
229
230
231
232
233
234
235
236

