%OldChk=/home/aartigas/chk/5_helicene_spe.chk
%nproc=8
%mem=1000MB
#P rb3lyp/6-311+g** NMR Guess=Read geom=connectivity

Title

0 1
C        0.6532410000     3.2578590000    -0.2025100000
C       -0.6532430000     3.2578600000     0.2025100000
C        1.3724950000     2.0329560000    -0.3208070000
C       -1.3724950000     2.0329560000     0.3208070000
C        0.7224740000     0.7956660000    -0.0503880000
C       -0.7224740000     0.7956670000     0.0503870000
C        2.7603850000     2.0539270000    -0.6742680000
C        3.5088660000     0.9139160000    -0.6713620000
C        2.9552260000    -0.3096220000    -0.1774790000
C        1.5747220000    -0.3611140000     0.1970940000
H        1.1834270000     4.1957400000    -0.3845990000
H       -1.1834290000     4.1957400000     0.3845990000
H        3.2062830000     3.0124230000    -0.9513920000
H        4.5600230000     0.9329560000    -0.9693330000
C        3.7830200000    -1.4430980000     0.0283090000
C        1.1374270000    -1.5075330000     0.9121090000
C        1.9736910000    -2.5843490000     1.1380620000
C        3.3018530000    -2.5715880000     0.6611770000
H        4.8257540000    -1.3912300000    -0.2954840000
H        0.1246520000    -1.5327880000     1.3084720000
H        1.6035860000    -3.4456820000     1.6989770000
H        3.9527420000    -3.4335260000     0.8251340000
C       -3.5088660000     0.9139150000     0.6713620000
C       -2.7603860000     2.0539260000     0.6742680000
C       -2.9552260000    -0.3096230000     0.1774790000
C       -1.5747220000    -0.3611140000    -0.1970940000
C       -3.7830200000    -1.4430990000    -0.0283090000
C       -3.3018520000    -2.5715890000    -0.6611770000
C       -1.9736900000    -2.5843490000    -1.1380610000
C       -1.1374260000    -1.5075340000    -0.9121090000
H       -4.5600220000     0.9329540000     0.9693340000
H       -3.2062830000     3.0124210000     0.9513920000
H       -4.8257540000    -1.3912320000     0.2954840000
H       -3.9527410000    -3.4335280000    -0.8251340000
H       -1.6035850000    -3.4456820000    -1.6989760000
H       -0.1246520000    -1.5327880000    -1.3084710000
Bq         0.0669872981     0.4672762500     0.9659255763
Bq         0.0337826644     0.4738810623     0.9659255763
Bq         0.0000000000     0.4760952951     0.9659255763
Bq        -0.0337826644     0.4738810623     0.9659255763
Bq        -0.0669872981     0.4672762500     0.9659255763
Bq        -0.0990457605     0.4563938684     0.9659255763
Bq        -0.1294095226     0.4414201180     0.9659255763
Bq        -0.1575590518     0.4226112040     0.9659255763
Bq        -0.1830127019     0.4002889519     0.9659255763
Bq        -0.2053349540     0.3748353018     0.9659255763
Bq        -0.2241438680     0.3466857726     0.9659255763
Bq        -0.2391176184     0.3163220105     0.9659255763
Bq        -0.2500000000     0.2842635481     0.9659255763
Bq        -0.2566048123     0.2510589144     0.9659255763
Bq        -0.2588190451     0.2172762500     0.9659255763
Bq        -0.2566048123     0.1834935856     0.9659255763
Bq        -0.2500000000     0.1502889519     0.9659255763
Bq        -0.2391176184     0.1182304895     0.9659255763
Bq        -0.2241438680     0.0878667274     0.9659255763
Bq        -0.2053349540     0.0597171982     0.9659255763
Bq         0.2705980501     0.4878743001     0.9238792825
Bq         0.2329629131     0.5208794293     0.9238792825
Bq         0.1913417162     0.5486898240     0.9238792825
Bq         0.1464466094     0.5708296406     0.9238792825
Bq         0.0990457605     0.5869200606     0.9238792825
Bq         0.0499502113     0.5966857726     0.9238792825
Bq         0.0000000000     0.5999596824     0.9238792825
Bq        -0.0499502113     0.5966857726     0.9238792825
Bq        -0.0990457605     0.5869200606     0.9238792825
Bq        -0.1464466094     0.5708296406     0.9238792825
Bq        -0.1913417162     0.5486898240     0.9238792825
Bq        -0.2329629131     0.5208794293     0.9238792825
Bq        -0.2705980501     0.4878743001     0.9238792825
Bq        -0.3036031793     0.4502391631     0.9238792825
Bq        -0.3314135740     0.4086179662     0.9238792825
Bq        -0.3535533906     0.3637228594     0.9238792825
Bq        -0.3696438106     0.3163220105     0.9238792825
Bq        -0.3794095226     0.2672264613     0.9238792825
Bq        -0.3826834324     0.2172762500     0.9238792825
Bq        -0.3794095226     0.1673260387     0.9238792825
Bq        -0.3696438106     0.1182304895     0.9238792825
Bq        -0.3535533906     0.0708296406     0.9238792825
Bq        -0.3314135740     0.0259345338     0.9238792825
Bq        -0.3036031793    -0.0156866631     0.9238792825
Bq         0.3535533906     0.5708296406     0.8660251538
Bq         0.3043807145     0.6139529201     0.8660251538
Bq         0.2500000000     0.6502889519     0.8660251538
Bq         0.1913417162     0.6792160163     0.8660251538
Bq         0.1294095226     0.7002391631     0.8660251538
Bq         0.0652630961     0.7129986807     0.8660251538
Bq         0.0000000000     0.7172762500     0.8660251538
Bq        -0.0652630961     0.7129986807     0.8660251538
Bq        -0.1294095226     0.7002391631     0.8660251538
Bq        -0.5000000000     0.2172762500     0.8660251538
Bq        -0.4957224307     0.1520131539     0.8660251538
Bq        -0.4829629131     0.0878667274     0.8660251538
Bq        -0.4619397663     0.0259345338     0.8660251538
Bq        -0.4330127019    -0.0327237500     0.8660251538
Bq        -0.3966766701    -0.0871044645     0.8660251538
Bq        -0.3535533906    -0.1362771406     0.8660251538
Bq         0.1575590518     0.8052946363     0.7933530903
Bq         0.0794593113     0.8208296406     0.7933530903
Bq         0.0000000000     0.8260376790     0.7933530903
Bq        -0.5880183863     0.0597171982     0.7933530903
Bq        -0.5624222244    -0.0156866631     0.7933530903
Bq        -0.5272028624    -0.0871044645     0.7933530903
Bq        -0.4829629131    -0.1533142274     0.7933530903
Bq        -0.4304593346    -0.2131830846     0.7933530903
Bq        -0.6830127019     0.0342635481     0.7071065312
Bq        -0.6532814824    -0.0533218001     0.7071065312
Bq        -0.6123724357    -0.1362771406     0.7071065312
Bq        -0.5609855268    -0.2131830846     0.7071065312
Bq        -0.5000000000    -0.2827237500     0.7071065312
Bq        -0.4304593346    -0.3437092768     0.7071065312
Bq        -0.7329629131    -0.0863269293     0.6087611790
Bq        -0.6870641469    -0.1794004201     0.6087611790
Bq        -0.6294095226    -0.2656866631     0.6087611790
Bq        -0.5609855268    -0.3437092768     0.6087611790
Bq        -0.4829629131    -0.4121332726     0.6087611790
Bq        -0.8001031452    -0.1141373240     0.4999997500
Bq        -0.7500000000    -0.2157364519     0.4999997500
Bq        -0.4330127019    -0.5327237500     0.4999997500
Bq         0.4330127019    -0.5327237500    -0.5000002500
Bq         0.7500000000    -0.2157364519    -0.5000002500
Bq         0.8001031452    -0.1141373240    -0.5000002500
Bq         0.4829629131    -0.4121332726    -0.6087616790
Bq         0.5609855268    -0.3437092768    -0.6087616790
Bq         0.6294095226    -0.2656866631    -0.6087616790
Bq         0.6870641469    -0.1794004201    -0.6087616790
Bq         0.7329629131    -0.0863269293    -0.6087616790
Bq         0.4304593346    -0.3437092768    -0.7071070312
Bq         0.5000000000    -0.2827237500    -0.7071070312
Bq         0.5609855268    -0.2131830846    -0.7071070312
Bq         0.6123724357    -0.1362771406    -0.7071070312
Bq         0.6532814824    -0.0533218001    -0.7071070312
Bq         0.6830127019     0.0342635481    -0.7071070312
Bq         0.0000000000     0.8260376790    -0.7933535903
Bq        -0.0794593113     0.8208296406    -0.7933535903
Bq        -0.1575590518     0.8052946363    -0.7933535903
Bq         0.4304593346    -0.2131830846    -0.7933535903
Bq         0.4829629131    -0.1533142274    -0.7933535903
Bq         0.5272028624    -0.0871044645    -0.7933535903
Bq         0.5624222244    -0.0156866631    -0.7933535903
Bq         0.5880183863     0.0597171982    -0.7933535903
Bq         0.5000000000     0.2172762500    -0.8660256538
Bq         0.1294095226     0.7002391631    -0.8660256538
Bq         0.0652630961     0.7129986807    -0.8660256538
Bq         0.0000000000     0.7172762500    -0.8660256538
Bq        -0.0652630961     0.7129986807    -0.8660256538
Bq        -0.1294095226     0.7002391631    -0.8660256538
Bq        -0.1913417162     0.6792160163    -0.8660256538
Bq        -0.2500000000     0.6502889519    -0.8660256538
Bq        -0.3043807145     0.6139529201    -0.8660256538
Bq        -0.3535533906     0.5708296406    -0.8660256538
Bq         0.3535533906    -0.1362771406    -0.8660256538
Bq         0.3966766701    -0.0871044645    -0.8660256538
Bq         0.4330127019    -0.0327237500    -0.8660256538
Bq         0.4619397663     0.0259345338    -0.8660256538
Bq         0.4829629131     0.0878667274    -0.8660256538
Bq         0.4957224307     0.1520131539    -0.8660256538
Bq         0.3826834324     0.2172762500    -0.9238797825
Bq         0.3794095226     0.2672264613    -0.9238797825
Bq         0.3696438106     0.3163220105    -0.9238797825
Bq         0.3535533906     0.3637228594    -0.9238797825
Bq         0.3314135740     0.4086179662    -0.9238797825
Bq         0.3036031793     0.4502391631    -0.9238797825
Bq         0.2705980501     0.4878743001    -0.9238797825
Bq         0.2329629131     0.5208794293    -0.9238797825
Bq         0.1913417162     0.5486898240    -0.9238797825
Bq         0.1464466094     0.5708296406    -0.9238797825
Bq         0.0990457605     0.5869200606    -0.9238797825
Bq         0.0499502113     0.5966857726    -0.9238797825
Bq         0.0000000000     0.5999596824    -0.9238797825
Bq        -0.0499502113     0.5966857726    -0.9238797825
Bq        -0.0990457605     0.5869200606    -0.9238797825
Bq        -0.1464466094     0.5708296406    -0.9238797825
Bq        -0.1913417162     0.5486898240    -0.9238797825
Bq        -0.2329629131     0.5208794293    -0.9238797825
Bq        -0.2705980501     0.4878743001    -0.9238797825
Bq         0.3036031793    -0.0156866631    -0.9238797825
Bq         0.3314135740     0.0259345338    -0.9238797825
Bq         0.3535533906     0.0708296406    -0.9238797825
Bq         0.3696438106     0.1182304895    -0.9238797825
Bq         0.3794095226     0.1673260387    -0.9238797825
Bq         0.2588190451     0.2172762500    -0.9659260763
Bq         0.2566048123     0.2510589144    -0.9659260763
Bq         0.2500000000     0.2842635481    -0.9659260763
Bq         0.2391176184     0.3163220105    -0.9659260763
Bq         0.2241438680     0.3466857726    -0.9659260763
Bq         0.2053349540     0.3748353018    -0.9659260763
Bq         0.1830127019     0.4002889519    -0.9659260763
Bq         0.1575590518     0.4226112040    -0.9659260763
Bq         0.1294095226     0.4414201180    -0.9659260763
Bq         0.0990457605     0.4563938684    -0.9659260763
Bq         0.0669872981     0.4672762500    -0.9659260763
Bq         0.0337826644     0.4738810623    -0.9659260763
Bq         0.0000000000     0.4760952951    -0.9659260763
Bq        -0.0337826644     0.4738810623    -0.9659260763
Bq        -0.0669872981     0.4672762500    -0.9659260763
Bq        -0.0990457605     0.4563938684    -0.9659260763
Bq        -0.1294095226     0.4414201180    -0.9659260763
Bq        -0.1575590518     0.4226112040    -0.9659260763
Bq         0.2053349540     0.0597171982    -0.9659260763
Bq         0.2241438680     0.0878667274    -0.9659260763
Bq         0.2391176184     0.1182304895    -0.9659260763
Bq         0.2500000000     0.1502889519    -0.9659260763
Bq         0.2566048123     0.1834935856    -0.9659260763
Bq         0.1305261922     0.2172762500    -0.9914451114
Bq         0.1294095226     0.2343133369    -0.9914451114
Bq         0.1260786201     0.2510589144    -0.9914451114
Bq         0.1205904774     0.2672264613    -0.9914451114
Bq         0.1130389983     0.2825393461    -0.9914451114
Bq         0.1035533906     0.2967355613    -0.9914451114
Bq         0.0922959556     0.3095722056    -0.9914451114
Bq         0.0794593113     0.3208296406    -0.9914451114
Bq         0.0652630961     0.3303152483    -0.9914451114
Bq         0.0499502113     0.3378667274    -0.9914451114
Bq         0.0337826644     0.3433548701    -0.9914451114
Bq         0.0170370869     0.3466857726    -0.9914451114
Bq         0.0000000000     0.3478024422    -0.9914451114
Bq        -0.0170370869     0.3466857726    -0.9914451114
Bq        -0.0337826644     0.3433548701    -0.9914451114
Bq        -0.0499502113     0.3378667274    -0.9914451114
Bq         0.1205904774     0.1673260387    -0.9914451114
Bq         0.1260786201     0.1834935856    -0.9914451114
Bq         0.1294095226     0.2002391631    -0.9914451114
Bq         0.5673602000    -0.3620204000     1.4835348000
Bq         0.5673602000    -0.3620204000     1.4835348000
Bq         0.5673602000    -0.3620204000     1.4835348000
Bq         0.5673602000    -0.3620204000     1.4835348000
Bq         0.5673602000    -0.3620204000     1.4835348000
Bq         0.5673602000    -0.3620204000     1.4835348000
Bq         0.5673602000    -0.3620204000     1.4835348000
Bq         0.5673602000    -0.3620204000     1.4835348000
Bq         0.5673602000    -0.3620204000     1.4835348000
Bq         0.5673602000    -0.3620204000     1.4835348000
Bq         0.5673602000    -0.3620204000     1.4835348000
Bq         0.5673602000    -0.3620204000     1.4835348000
Bq         0.5673602000    -0.3620204000     1.4835348000
Bq         0.5673602000    -0.3620204000     1.4835348000

1
2
3
4
5
6
7
8
9
10
11
12
13
14
15
16
17
18
19
20
21
22
23
24
25
26
27
28
29
30
31
32
33
34
35
36
37
38
39
40
41
42
43
44
45
46
47
48
49
50
51
52
53
54
55
56
57
58
59
60
61
62
63
64
65
66
67
68
69
70
71
72
73
74
75
76
77
78
79
80
81
82
83
84
85
86
87
88
89
90
91
92
93
94
95
96
97
98
99
100
101
102
103
104
105
106
107
108
109
110
111
112
113
114
115
116
117
118
119
120
121
122
123
124
125
126
127
128
129
130
131
132
133
134
135
136
137
138
139
140
141
142
143
144
145
146
147
148
149
150
151
152
153
154
155
156
157
158
159
160
161
162
163
164
165
166
167
168
169
170
171
172
173
174
175
176
177
178
179
180
181
182
183
184
185
186
187
188
189
190
191
192
193
194
195
196
197
198
199
200
201
202
203
204
205
206
207
208
209
210
211
212
213
214
215
216
217
218
219
220
221
222
223
224
225
226
227
228
229
230
231
232
233
234
235
236

