%OldChk=/home/aartigas/chk/5_helicene_spe.chk
%nproc=8
%mem=1000MB
#P rb3lyp/6-311+g** NMR Guess=Read geom=connectivity

Title

0 1
C        0.6532410000     3.2578590000    -0.2025100000
C       -0.6532430000     3.2578600000     0.2025100000
C        1.3724950000     2.0329560000    -0.3208070000
C       -1.3724950000     2.0329560000     0.3208070000
C        0.7224740000     0.7956660000    -0.0503880000
C       -0.7224740000     0.7956670000     0.0503870000
C        2.7603850000     2.0539270000    -0.6742680000
C        3.5088660000     0.9139160000    -0.6713620000
C        2.9552260000    -0.3096220000    -0.1774790000
C        1.5747220000    -0.3611140000     0.1970940000
H        1.1834270000     4.1957400000    -0.3845990000
H       -1.1834290000     4.1957400000     0.3845990000
H        3.2062830000     3.0124230000    -0.9513920000
H        4.5600230000     0.9329560000    -0.9693330000
C        3.7830200000    -1.4430980000     0.0283090000
C        1.1374270000    -1.5075330000     0.9121090000
C        1.9736910000    -2.5843490000     1.1380620000
C        3.3018530000    -2.5715880000     0.6611770000
H        4.8257540000    -1.3912300000    -0.2954840000
H        0.1246520000    -1.5327880000     1.3084720000
H        1.6035860000    -3.4456820000     1.6989770000
H        3.9527420000    -3.4335260000     0.8251340000
C       -3.5088660000     0.9139150000     0.6713620000
C       -2.7603860000     2.0539260000     0.6742680000
C       -2.9552260000    -0.3096230000     0.1774790000
C       -1.5747220000    -0.3611140000    -0.1970940000
C       -3.7830200000    -1.4430990000    -0.0283090000
C       -3.3018520000    -2.5715890000    -0.6611770000
C       -1.9736900000    -2.5843490000    -1.1380610000
C       -1.1374260000    -1.5075340000    -0.9121090000
H       -4.5600220000     0.9329540000     0.9693340000
H       -3.2062830000     3.0124210000     0.9513920000
H       -4.8257540000    -1.3912320000     0.2954840000
H       -3.9527410000    -3.4335280000    -0.8251340000
H       -1.6035850000    -3.4456820000    -1.6989760000
H       -0.1246520000    -1.5327880000    -1.3084710000
Bq         2.2629814505    -1.1314704260     1.3837581992
Bq         2.2213602535    -1.1592808207     1.3837581992
Bq         2.1837251166    -1.1922859499     1.3837581992
Bq         2.1507199873    -1.2299210869     1.3837581992
Bq         2.1229095926    -1.2715422838     1.3837581992
Bq         2.1007697761    -1.3164373906     1.3837581992
Bq         2.0846793561    -1.3638382395     1.3837581992
Bq         2.0749136441    -1.4129337887     1.3837581992
Bq         2.0716397343    -1.4628840000     1.3837581992
Bq         2.0749136441    -1.5128342113     1.3837581992
Bq         2.0846793561    -1.5619297605     1.3837581992
Bq         2.1007697761    -1.6093306094     1.3837581992
Bq         2.6007697761    -1.8164373906     1.3837581992
Bq         2.6456648828    -1.7942975740     1.3837581992
Bq         2.6872860798    -1.7664871793     1.3837581992
Bq         2.7249212167    -1.7334820501     1.3837581992
Bq         2.7579263460    -1.6958469131     1.3837581992
Bq         2.7857367407    -1.6542257162     1.3837581992
Bq         2.8078765573    -1.6093306094     1.3837581992
Bq         2.8239669773    -1.5619297605     1.3837581992
Bq         2.8337326892    -1.5128342113     1.3837581992
Bq         2.9543231667    -1.4628840000     1.3259040705
Bq         2.9500455974    -1.3976209039     1.3259040705
Bq         2.9372860798    -1.3334744774     1.3259040705
Bq         2.9162629329    -1.2715422838     1.3259040705
Bq         2.8873358686    -1.2128840000     1.3259040705
Bq         2.8509998368    -1.1585032855     1.3259040705
Bq         2.8078765573    -1.1093306094     1.3259040705
Bq         2.7587038812    -1.0662073299     1.3259040705
Bq         2.7043231667    -1.0298712981     1.3259040705
Bq         2.6456648828    -1.0009442337     1.3259040705
Bq         2.5837326892    -0.9799210869     1.3259040705
Bq         2.5195862628    -0.9671615693     1.3259040705
Bq         2.4543231667    -0.9628840000     1.3259040705
Bq         2.3890600706    -0.9671615693     1.3259040705
Bq         2.3249136441    -0.9799210869     1.3259040705
Bq         2.2629814505    -1.0009442337     1.3259040705
Bq         2.2043231667    -1.0298712981     1.3259040705
Bq         2.1499424522    -1.0662073299     1.3259040705
Bq         2.1007697761    -1.1093306094     1.3259040705
Bq         2.0576464965    -1.1585032855     1.3259040705
Bq         2.0213104648    -1.2128840000     1.3259040705
Bq         2.7043231667    -1.8958967019     1.3259040705
Bq         2.7587038812    -1.8595606701     1.3259040705
Bq         2.8078765573    -1.8164373906     1.3259040705
Bq         2.8509998368    -1.7672647145     1.3259040705
Bq         2.8873358686    -1.7128840000     1.3259040705
Bq         2.9162629329    -1.6542257162     1.3259040705
Bq         2.9372860798    -1.5922935226     1.3259040705
Bq         2.9500455974    -1.5281470961     1.3259040705
Bq         3.0630845957    -1.4628840000     1.2532320070
Bq         3.0578765573    -1.3834246887     1.2532320070
Bq         3.0423415530    -1.3053249482     1.2532320070
Bq         3.0167453911    -1.2299210869     1.2532320070
Bq         2.9815260290    -1.1585032855     1.2532320070
Bq         2.9372860798    -1.0922935226     1.2532320070
Bq         2.8847825012    -1.0324246654     1.2532320070
Bq         2.8249136441    -0.9799210869     1.2532320070
Bq         2.7587038812    -0.9356811376     1.2532320070
Bq         2.6872860798    -0.9004617756     1.2532320070
Bq         2.6118822184    -0.8748656137     1.2532320070
Bq         2.5337824780    -0.8593306094     1.2532320070
Bq         2.4543231667    -0.8541225710     1.2532320070
Bq         2.3748638554    -0.8593306094     1.2532320070
Bq         2.2967641149    -0.8748656137     1.2532320070
Bq         2.2213602535    -0.9004617756     1.2532320070
Bq         2.1499424522    -0.9356811376     1.2532320070
Bq         2.0837326892    -0.9799210869     1.2532320070
Bq         2.0238638321    -1.0324246654     1.2532320070
Bq         2.9372860798    -1.8334744774     1.2532320070
Bq         2.9815260290    -1.7672647145     1.2532320070
Bq         3.0167453911    -1.6958469131     1.2532320070
Bq         3.0423415530    -1.6204430518     1.2532320070
Bq         3.0578765573    -1.5423433113     1.2532320070
Bq         3.1614299479    -1.4628840000     1.1669854479
Bq         3.1553805513    -1.3705880444     1.1669854479
Bq         3.1373358686    -1.2798712981     1.1669854479
Bq         3.1076046491    -1.1922859499     1.1669854479
Bq         3.0666956024    -1.1093306094     1.1669854479
Bq         3.0153086935    -1.0324246654     1.1669854479
Bq         2.9543231667    -0.9628840000     1.1669854479
Bq         2.8847825012    -0.9018984732     1.1669854479
Bq         2.8078765573    -0.8505115643     1.1669854479
Bq         2.7249212167    -0.8096025176     1.1669854479
Bq         2.6373358686    -0.7798712981     1.1669854479
Bq         2.5466191223    -0.7618266154     1.1669854479
Bq         2.4543231667    -0.7557772188     1.1669854479
Bq         2.3620272110    -0.7618266154     1.1669854479
Bq         2.2713104648    -0.7798712981     1.1669854479
Bq         2.1837251166    -0.8096025176     1.1669854479
Bq         2.1007697761    -0.8505115643     1.1669854479
Bq         2.0238638321    -0.9018984732     1.1669854479
Bq         1.9543231667    -0.9628840000     1.1669854479
Bq         3.1373358686    -1.6458967019     1.1669854479
Bq         3.1553805513    -1.5551799556     1.1669854479
Bq         3.2476765070    -1.4628840000     1.0686400957
Bq         3.2408892592    -1.3593306094     1.0686400957
Bq         3.2206436474    -1.2575490460     1.0686400957
Bq         3.1872860798    -1.1592808207     1.0686400957
Bq         3.1413873135    -1.0662073299     1.0686400957
Bq         3.0837326892    -0.9799210869     1.0686400957
Bq         3.0153086935    -0.9018984732     1.0686400957
Bq         2.9372860798    -0.8334744774     1.0686400957
Bq         2.8509998368    -0.7758198531     1.0686400957
Bq         2.7579263460    -0.7299210869     1.0686400957
Bq         2.6596581206    -0.6965635192     1.0686400957
Bq         2.5578765573    -0.6763179075     1.0686400957
Bq         2.4543231667    -0.6695306597     1.0686400957
Bq         2.3507697761    -0.6763179075     1.0686400957
Bq         2.2489882127    -0.6965635192     1.0686400957
Bq         2.1507199873    -0.7299210869     1.0686400957
Bq         2.0576464965    -0.7758198531     1.0686400957
Bq         1.9713602535    -0.8334744774     1.0686400957
Bq         3.2408892592    -1.5664373906     1.0686400957
Bq         3.3203485705    -1.4628840000     0.9598786667
Bq         3.3129396031    -1.3498450017     0.9598786667
Bq         3.2908394704    -1.2387401320     0.9598786667
Bq         3.2544263119    -1.1314704260     0.9598786667
Bq         3.2043231667    -1.0298712981     0.9598786667
Bq         3.1413873135    -0.9356811376     0.9598786667
Bq         3.0666956024    -0.8505115643     0.9598786667
Bq         2.9815260290    -0.7758198531     0.9598786667
Bq         2.8873358686    -0.7128840000     0.9598786667
Bq         2.7857367407    -0.6627808548     0.9598786667
Bq         2.6784670347    -0.6263676963     0.9598786667
Bq         2.5673621650    -0.6042675636     0.9598786667
Bq         2.4543231667    -0.5968585962     0.9598786667
Bq         2.3412841683    -0.6042675636     0.9598786667
Bq         2.2301792986    -0.6263676963     0.9598786667
Bq         3.3129396031    -1.5759229983     0.9598786667
Bq         3.3078765573    -1.1093306094     0.8425620990
Bq         3.2544263119    -1.0009442337     0.8425620990
Bq         3.1872860798    -0.9004617756     0.8425620990
Bq         3.1076046491    -0.8096025176     0.8425620990
Bq         3.0167453911    -0.7299210869     0.8425620990
Bq         2.9162629329    -0.6627808548     0.8425620990
Bq         2.8078765573    -0.6093306094     0.8425620990
Bq         2.6934407851    -0.5704848992     0.8425620990
Bq         2.5749136441    -0.5469083850     0.8425620990
Bq         2.4543231667    -0.5390044675     0.8425620990
Bq         2.3337326892    -0.5469083850     0.8425620990
Bq         3.2206436474    -0.8748656137     0.7186977118
Bq         3.1373358686    -0.7798712981     0.7186977118
Bq         2.4543231667    -0.4969581737     0.7186977118
Bq         1.6880026859    -2.0509023863     0.2010596216
Bq         1.7713104648    -2.1458967019     0.2010596216
Bq         1.8663047803    -2.2292044808     0.2010596216
Bq         2.3282445466    -2.4205461969     0.2010596216
Bq         1.6007697761    -1.8164373906     0.0771952343
Bq         1.6542200215    -1.9248237663     0.0771952343
Bq         1.7213602535    -2.0253062244     0.0771952343
Bq         1.8010416842    -2.1161654824     0.0771952343
Bq         1.8919009422    -2.1958469131     0.0771952343
Bq         1.9923834004    -2.2629871452     0.0771952343
Bq         2.1007697761    -2.3164373906     0.0771952343
Bq         2.2152055483    -2.3552831008     0.0771952343
Bq         2.3337326892    -2.3788596150     0.0771952343
Bq         2.4543231667    -2.3867635325     0.0771952343
Bq         1.5957067303    -1.3498450017    -0.0401213333
Bq         1.5882977629    -1.4628840000    -0.0401213333
Bq         1.5957067303    -1.5759229983    -0.0401213333
Bq         1.6178068629    -1.6870278680    -0.0401213333
Bq         1.6542200215    -1.7942975740    -0.0401213333
Bq         1.7043231667    -1.8958967019    -0.0401213333
Bq         1.7672590198    -1.9900868624    -0.0401213333
Bq         1.8419507310    -2.0752564357    -0.0401213333
Bq         1.9271203043    -2.1499481469    -0.0401213333
Bq         2.0213104648    -2.2128840000    -0.0401213333
Bq         2.1229095926    -2.2629871452    -0.0401213333
Bq         2.2301792986    -2.2994003037    -0.0401213333
Bq         2.3412841683    -2.3215004364    -0.0401213333
Bq         2.4543231667    -2.3289094038    -0.0401213333
Bq         2.5673621650    -2.3215004364    -0.0401213333
Bq         1.6677570742    -1.3593306094    -0.1488827623
Bq         1.6609698264    -1.4628840000    -0.1488827623
Bq         1.6677570742    -1.5664373906    -0.1488827623
Bq         1.6880026859    -1.6682189540    -0.1488827623
Bq         1.7213602535    -1.7664871793    -0.1488827623
Bq         1.7672590198    -1.8595606701    -0.1488827623
Bq         1.8249136441    -1.9458469131    -0.1488827623
Bq         1.8933376399    -2.0238695268    -0.1488827623
Bq         1.9713602535    -2.0922935226    -0.1488827623
Bq         2.0576464965    -2.1499481469    -0.1488827623
Bq         2.1507199873    -2.1958469131    -0.1488827623
Bq         2.2489882127    -2.2292044808    -0.1488827623
Bq         2.3507697761    -2.2494500925    -0.1488827623
Bq         2.4543231667    -2.2562373403    -0.1488827623
Bq         2.5578765573    -2.2494500925    -0.1488827623
Bq         2.6596581206    -2.2292044808    -0.1488827623
Bq         2.7579263460    -2.1958469131    -0.1488827623
Bq         2.8509998368    -2.1499481469    -0.1488827623
Bq         2.9372860798    -2.0922935226    -0.1488827623
Bq         1.7713104648    -1.2798712981    -0.2472281145
Bq         1.7532657820    -1.3705880444    -0.2472281145
Bq         1.7472163855    -1.4628840000    -0.2472281145
Bq         1.7532657820    -1.5551799556    -0.2472281145
Bq         1.7713104648    -1.6458967019    -0.2472281145
Bq         1.8010416842    -1.7334820501    -0.2472281145
Bq         1.8419507310    -1.8164373906    -0.2472281145
Bq         1.8933376399    -1.8933433346    -0.2472281145

1
2
3
4
5
6
7
8
9
10
11
12
13
14
15
16
17
18
19
20
21
22
23
24
25
26
27
28
29
30
31
32
33
34
35
36
37
38
39
40
41
42
43
44
45
46
47
48
49
50
51
52
53
54
55
56
57
58
59
60
61
62
63
64
65
66
67
68
69
70
71
72
73
74
75
76
77
78
79
80
81
82
83
84
85
86
87
88
89
90
91
92
93
94
95
96
97
98
99
100
101
102
103
104
105
106
107
108
109
110
111
112
113
114
115
116
117
118
119
120
121
122
123
124
125
126
127
128
129
130
131
132
133
134
135
136
137
138
139
140
141
142
143
144
145
146
147
148
149
150
151
152
153
154
155
156
157
158
159
160
161
162
163
164
165
166
167
168
169
170
171
172
173
174
175
176
177
178
179
180
181
182
183
184
185
186
187
188
189
190
191
192
193
194
195
196
197
198
199
200
201
202
203
204
205
206
207
208
209
210
211
212
213
214
215
216
217
218
219
220
221
222
223
224
225
226
227
228
229
230
231
232
233
234
235
236

