%OldChk=/home/aartigas/chk/5_helicene_spe.chk
%nproc=8
%mem=1000MB
#P rb3lyp/6-311+g** NMR Guess=Read geom=connectivity

Title

0 1
C        0.6532410000     3.2578590000    -0.2025100000
C       -0.6532430000     3.2578600000     0.2025100000
C        1.3724950000     2.0329560000    -0.3208070000
C       -1.3724950000     2.0329560000     0.3208070000
C        0.7224740000     0.7956660000    -0.0503880000
C       -0.7224740000     0.7956670000     0.0503870000
C        2.7603850000     2.0539270000    -0.6742680000
C        3.5088660000     0.9139160000    -0.6713620000
C        2.9552260000    -0.3096220000    -0.1774790000
C        1.5747220000    -0.3611140000     0.1970940000
H        1.1834270000     4.1957400000    -0.3845990000
H       -1.1834290000     4.1957400000     0.3845990000
H        3.2062830000     3.0124230000    -0.9513920000
H        4.5600230000     0.9329560000    -0.9693330000
C        3.7830200000    -1.4430980000     0.0283090000
C        1.1374270000    -1.5075330000     0.9121090000
C        1.9736910000    -2.5843490000     1.1380620000
C        3.3018530000    -2.5715880000     0.6611770000
H        4.8257540000    -1.3912300000    -0.2954840000
H        0.1246520000    -1.5327880000     1.3084720000
H        1.6035860000    -3.4456820000     1.6989770000
H        3.9527420000    -3.4335260000     0.8251340000
C       -3.5088660000     0.9139150000     0.6713620000
C       -2.7603860000     2.0539260000     0.6742680000
C       -2.9552260000    -0.3096230000     0.1774790000
C       -1.5747220000    -0.3611140000    -0.1970940000
C       -3.7830200000    -1.4430990000    -0.0283090000
C       -3.3018520000    -2.5715890000    -0.6611770000
C       -1.9736900000    -2.5843490000    -1.1380610000
C       -1.1374260000    -1.5075340000    -0.9121090000
H       -4.5600220000     0.9329540000     0.9693340000
H       -3.2062830000     3.0124210000     0.9513920000
H       -4.8257540000    -1.3912320000     0.2954840000
H       -3.9527410000    -3.4335280000    -0.8251340000
H       -1.6035850000    -3.4456820000    -1.6989760000
H       -0.1246520000    -1.5327880000    -1.3084710000
Bq        -3.0259030869     0.7845054774     1.5373874038
Bq        -3.0131435693     0.8486519039     1.5373874038
Bq        -2.9001045710     0.9139150000     1.4647153403
Bq        -2.9053126094     0.9933743113     1.4647153403
Bq        -2.9208476137     1.0714740518     1.4647153403
Bq        -2.9464437756     1.1468779131     1.4647153403
Bq        -3.8132467145     0.3867121376     1.4647153403
Bq        -3.7418289131     0.3514927756     1.4647153403
Bq        -3.6664250518     0.3258966137     1.4647153403
Bq        -3.5883253113     0.3103616094     1.4647153403
Bq        -3.5088660000     0.3051535710     1.4647153403
Bq        -3.4294066887     0.3103616094     1.4647153403
Bq        -3.3513069482     0.3258966137     1.4647153403
Bq        -3.2759030869     0.3514927756     1.4647153403
Bq        -3.2044852855     0.3867121376     1.4647153403
Bq        -3.1382755226     0.4309520869     1.4647153403
Bq        -3.0784066654     0.4834556654     1.4647153403
Bq        -3.0259030869     0.5433245226     1.4647153403
Bq        -2.9816631376     0.6095342855     1.4647153403
Bq        -2.9464437756     0.6809520869     1.4647153403
Bq        -2.9208476137     0.7563559482     1.4647153403
Bq        -2.9053126094     0.8344556887     1.4647153403
Bq        -2.8017592188     0.9139150000     1.3784687812
Bq        -2.8078086154     1.0062109556     1.3784687812
Bq        -2.8258532981     1.0969277019     1.3784687812
Bq        -2.8555845176     1.1845130501     1.3784687812
Bq        -3.8624193906     0.3015425643     1.3784687812
Bq        -3.7794640501     0.2606335176     1.3784687812
Bq        -3.6918787019     0.2309022981     1.3784687812
Bq        -3.6011619556     0.2128576154     1.3784687812
Bq        -3.5088660000     0.2068082188     1.3784687812
Bq        -3.4165700444     0.2128576154     1.3784687812
Bq        -3.3258532981     0.2309022981     1.3784687812
Bq        -3.2382679499     0.2606335176     1.3784687812
Bq        -3.1553126094     0.3015425643     1.3784687812
Bq        -3.0784066654     0.3529294732     1.3784687812
Bq        -3.0088660000     0.4139150000     1.3784687812
Bq        -2.9478804732     0.4834556654     1.3784687812
Bq        -2.8964935643     0.5603616094     1.3784687812
Bq        -2.8555845176     0.6433169499     1.3784687812
Bq        -2.8258532981     0.7309022981     1.3784687812
Bq        -2.8078086154     0.8216190444     1.3784687812
Bq        -2.7155126597     0.9139150000     1.2801234290
Bq        -2.7222999075     1.0174683906     1.2801234290
Bq        -2.7425455192     1.1192499540     1.2801234290
Bq        -2.7759030869     1.2175181793     1.2801234290
Bq        -3.5088660000     0.1205616597     1.2801234290
Bq        -3.4053126094     0.1273489075     1.2801234290
Bq        -3.3035310460     0.1475945192     1.2801234290
Bq        -3.2052628207     0.1809520869     1.2801234290
Bq        -3.1121893299     0.2268508531     1.2801234290
Bq        -3.0259030869     0.2845054774     1.2801234290
Bq        -2.9478804732     0.3529294732     1.2801234290
Bq        -2.8794564774     0.4309520869     1.2801234290
Bq        -2.8218018531     0.5172383299     1.2801234290
Bq        -2.7759030869     0.6103118207     1.2801234290
Bq        -2.7425455192     0.7085800460     1.2801234290
Bq        -2.7222999075     0.8103616094     1.2801234290
Bq        -2.6428405962     0.9139150000     1.1713620000
Bq        -2.6502495636     1.0269539983     1.1713620000
Bq        -2.6723496963     1.1380588680     1.1713620000
Bq        -3.2847221320     0.0773986963     1.1713620000
Bq        -3.1774524260     0.1138118548     1.1713620000
Bq        -3.0758532981     0.1639150000     1.1713620000
Bq        -2.9816631376     0.2268508531     1.1713620000
Bq        -2.8964935643     0.3015425643     1.1713620000
Bq        -2.8218018531     0.3867121376     1.1713620000
Bq        -2.7588660000     0.4809022981     1.1713620000
Bq        -2.7087628548     0.5825014260     1.1713620000
Bq        -2.6723496963     0.6897711320     1.1713620000
Bq        -2.6502495636     0.8008760017     1.1713620000
Bq        -2.9464437756     0.1809520869     1.0540454324
Bq        -2.8555845176     0.2606335176     1.0540454324
Bq        -2.7759030869     0.3514927756     1.0540454324
Bq        -2.7087628548     0.4519752337     1.0540454324
Bq        -2.7425455192     0.3258966137     0.9301810451
Bq        -4.1382755226     1.3968779131     0.0626005710
Bq        -4.1959301469     1.3105916701     0.0626005710
Bq        -4.2418289131     1.2175181793     0.0626005710
Bq        -4.0088660000     1.4139150000    -0.0357447812
Bq        -4.0698515268     1.3443743346    -0.0357447812
Bq        -4.1212384357     1.2674683906    -0.0357447812
Bq        -4.1621474824     1.1845130501    -0.0357447812
Bq        -4.1918787019     1.0969277019    -0.0357447812
Bq        -4.2099233846     1.0062109556    -0.0357447812
Bq        -4.2159727812     0.9139150000    -0.0357447812
Bq        -4.2099233846     0.8216190444    -0.0357447812
Bq        -4.1918787019     0.7309022981    -0.0357447812
Bq        -4.1621474824     0.6433169499    -0.0357447812
Bq        -3.0259030869     1.2845054774    -0.1219913403
Bq        -3.0784066654     1.3443743346    -0.1219913403
Bq        -3.1382755226     1.3968779131    -0.1219913403
Bq        -3.2044852855     1.4411178624    -0.1219913403
Bq        -3.8132467145     1.4411178624    -0.1219913403
Bq        -3.8794564774     1.3968779131    -0.1219913403
Bq        -3.9393253346     1.3443743346    -0.1219913403
Bq        -3.9918289131     1.2845054774    -0.1219913403
Bq        -4.0360688624     1.2182957145    -0.1219913403
Bq        -4.0712882244     1.1468779131    -0.1219913403
Bq        -4.0968843863     1.0714740518    -0.1219913403
Bq        -4.1124193906     0.9933743113    -0.1219913403
Bq        -4.1176274290     0.9139150000    -0.1219913403
Bq        -4.1124193906     0.8344556887    -0.1219913403
Bq        -4.0968843863     0.7563559482    -0.1219913403
Bq        -4.0712882244     0.6809520869    -0.1219913403
Bq        -4.0360688624     0.6095342855    -0.1219913403
Bq        -3.0259030869     1.0433245226    -0.1946634038
Bq        -3.0469262337     1.1052567162    -0.1946634038
Bq        -3.0758532981     1.1639150000    -0.1946634038
Bq        -3.1121893299     1.2182957145    -0.1946634038
Bq        -3.1553126094     1.2674683906    -0.1946634038
Bq        -3.2044852855     1.3105916701    -0.1946634038
Bq        -3.2588660000     1.3469277019    -0.1946634038
Bq        -3.3175242838     1.3758547663    -0.1946634038
Bq        -3.3794564774     1.3968779131    -0.1946634038
Bq        -3.4436029039     1.4096374307    -0.1946634038
Bq        -3.5088660000     1.4139150000    -0.1946634038
Bq        -3.5741290961     1.4096374307    -0.1946634038
Bq        -3.6382755226     1.3968779131    -0.1946634038
Bq        -3.7002077162     1.3758547663    -0.1946634038
Bq        -3.7588660000     1.3469277019    -0.1946634038
Bq        -3.8132467145     1.3105916701    -0.1946634038
Bq        -3.8624193906     1.2674683906    -0.1946634038
Bq        -3.9055426701     1.2182957145    -0.1946634038
Bq        -3.9418787019     1.1639150000    -0.1946634038
Bq        -3.9708057663     1.1052567162    -0.1946634038
Bq        -3.9918289131     1.0433245226    -0.1946634038
Bq        -4.0045884307     0.9791780961    -0.1946634038
Bq        -4.0088660000     0.9139150000    -0.1946634038
Bq        -4.0045884307     0.8486519039    -0.1946634038
Bq        -3.9918289131     0.7845054774    -0.1946634038
Bq        -3.9708057663     0.7225732838    -0.1946634038
Bq        -3.9418787019     0.6639150000    -0.1946634038
Bq        -3.9055426701     0.6095342855    -0.1946634038
Bq        -3.8624193906     0.5603616094    -0.1946634038
Bq        -3.1121893299     0.6095342855    -0.1946634038
Bq        -3.0758532981     0.6639150000    -0.1946634038
Bq        -3.0469262337     0.7225732838    -0.1946634038
Bq        -3.0259030869     0.7845054774    -0.1946634038
Bq        -3.1261825676     0.9139150000    -0.2525175325
Bq        -3.1294564774     0.9638652113    -0.2525175325
Bq        -3.1392221894     1.0129607605    -0.2525175325
Bq        -3.1553126094     1.0603616094    -0.2525175325
Bq        -3.1774524260     1.1052567162    -0.2525175325
Bq        -3.2052628207     1.1468779131    -0.2525175325
Bq        -3.2382679499     1.1845130501    -0.2525175325
Bq        -3.2759030869     1.2175181793    -0.2525175325
Bq        -3.3175242838     1.2453285740    -0.2525175325
Bq        -3.3624193906     1.2674683906    -0.2525175325
Bq        -3.4098202395     1.2835588106    -0.2525175325
Bq        -3.4589157887     1.2933245226    -0.2525175325
Bq        -3.5088660000     1.2965984324    -0.2525175325
Bq        -3.5588162113     1.2933245226    -0.2525175325
Bq        -3.6079117605     1.2835588106    -0.2525175325
Bq        -3.6553126094     1.2674683906    -0.2525175325
Bq        -3.7002077162     1.2453285740    -0.2525175325
Bq        -3.7418289131     1.2175181793    -0.2525175325
Bq        -3.7794640501     1.1845130501    -0.2525175325
Bq        -3.8124691793     1.1468779131    -0.2525175325
Bq        -3.8402795740     1.1052567162    -0.2525175325
Bq        -3.8624193906     1.0603616094    -0.2525175325
Bq        -3.8785098106     1.0129607605    -0.2525175325
Bq        -3.8882755226     0.9638652113    -0.2525175325
Bq        -3.8915494324     0.9139150000    -0.2525175325
Bq        -3.8882755226     0.8639647887    -0.2525175325
Bq        -3.8785098106     0.8148692395    -0.2525175325
Bq        -3.8624193906     0.7674683906    -0.2525175325
Bq        -3.8402795740     0.7225732838    -0.2525175325
Bq        -3.8124691793     0.6809520869    -0.2525175325
Bq        -3.7794640501     0.6433169499    -0.2525175325
Bq        -3.7418289131     0.6103118207    -0.2525175325
Bq        -3.7002077162     0.5825014260    -0.2525175325
Bq        -3.6553126094     0.5603616094    -0.2525175325
Bq        -3.6079117605     0.5442711894    -0.2525175325
Bq        -3.5588162113     0.5345054774    -0.2525175325
Bq        -3.5088660000     0.5312315676    -0.2525175325
Bq        -3.4589157887     0.5345054774    -0.2525175325
Bq        -3.4098202395     0.5442711894    -0.2525175325
Bq        -3.3624193906     0.5603616094    -0.2525175325
Bq        -3.3175242838     0.5825014260    -0.2525175325
Bq        -3.2759030869     0.6103118207    -0.2525175325
Bq        -3.2382679499     0.6433169499    -0.2525175325
Bq        -3.2052628207     0.6809520869    -0.2525175325
Bq        -3.1774524260     0.7225732838    -0.2525175325
Bq        -3.1553126094     0.7674683906    -0.2525175325
Bq        -3.1392221894     0.8148692395    -0.2525175325
Bq        -3.1294564774     0.8639647887    -0.2525175325
Bq        -3.2500469549     0.9139150000    -0.2945638263
Bq        -3.2522611877     0.9476976644    -0.2945638263
Bq        -3.2588660000     0.9809022981    -0.2945638263
Bq        -3.2697483816     1.0129607605    -0.2945638263
Bq        -3.2847221320     1.0433245226    -0.2945638263
Bq        -3.3035310460     1.0714740518    -0.2945638263
Bq        -3.3258532981     1.0969277019    -0.2945638263
Bq        -3.3513069482     1.1192499540    -0.2945638263
Bq        -3.3794564774     1.1380588680    -0.2945638263
Bq        -3.4098202395     1.1530326184    -0.2945638263
Bq        -3.4418787019     1.1639150000    -0.2945638263
Bq        -3.4750833356     1.1705198123    -0.2945638263
Bq        -3.5088660000     1.1727340451    -0.2945638263

1
2
3
4
5
6
7
8
9
10
11
12
13
14
15
16
17
18
19
20
21
22
23
24
25
26
27
28
29
30
31
32
33
34
35
36
37
38
39
40
41
42
43
44
45
46
47
48
49
50
51
52
53
54
55
56
57
58
59
60
61
62
63
64
65
66
67
68
69
70
71
72
73
74
75
76
77
78
79
80
81
82
83
84
85
86
87
88
89
90
91
92
93
94
95
96
97
98
99
100
101
102
103
104
105
106
107
108
109
110
111
112
113
114
115
116
117
118
119
120
121
122
123
124
125
126
127
128
129
130
131
132
133
134
135
136
137
138
139
140
141
142
143
144
145
146
147
148
149
150
151
152
153
154
155
156
157
158
159
160
161
162
163
164
165
166
167
168
169
170
171
172
173
174
175
176
177
178
179
180
181
182
183
184
185
186
187
188
189
190
191
192
193
194
195
196
197
198
199
200
201
202
203
204
205
206
207
208
209
210
211
212
213
214
215
216
217
218
219
220
221
222
223
224
225
226
227
228
229
230
231
232
233
234
235
236

