%OldChk=/home/aartigas/chk/5_helicene_spe.chk
%nproc=8
%mem=1000MB
#P rb3lyp/6-311+g** NMR Guess=Read geom=connectivity

Title

0 1
C        0.6532410000     3.2578590000    -0.2025100000
C       -0.6532430000     3.2578600000     0.2025100000
C        1.3724950000     2.0329560000    -0.3208070000
C       -1.3724950000     2.0329560000     0.3208070000
C        0.7224740000     0.7956660000    -0.0503880000
C       -0.7224740000     0.7956670000     0.0503870000
C        2.7603850000     2.0539270000    -0.6742680000
C        3.5088660000     0.9139160000    -0.6713620000
C        2.9552260000    -0.3096220000    -0.1774790000
C        1.5747220000    -0.3611140000     0.1970940000
H        1.1834270000     4.1957400000    -0.3845990000
H       -1.1834290000     4.1957400000     0.3845990000
H        3.2062830000     3.0124230000    -0.9513920000
H        4.5600230000     0.9329560000    -0.9693330000
C        3.7830200000    -1.4430980000     0.0283090000
C        1.1374270000    -1.5075330000     0.9121090000
C        1.9736910000    -2.5843490000     1.1380620000
C        3.3018530000    -2.5715880000     0.6611770000
H        4.8257540000    -1.3912300000    -0.2954840000
H        0.1246520000    -1.5327880000     1.3084720000
H        1.6035860000    -3.4456820000     1.6989770000
H        3.9527420000    -3.4335260000     0.8251340000
C       -3.5088660000     0.9139150000     0.6713620000
C       -2.7603860000     2.0539260000     0.6742680000
C       -2.9552260000    -0.3096230000     0.1774790000
C       -1.5747220000    -0.3611140000    -0.1970940000
C       -3.7830200000    -1.4430990000    -0.0283090000
C       -3.3018520000    -2.5715890000    -0.6611770000
C       -1.9736900000    -2.5843490000    -1.1380610000
C       -1.1374260000    -1.5075340000    -0.9121090000
H       -4.5600220000     0.9329540000     0.9693340000
H       -3.2062830000     3.0124210000     0.9513920000
H       -4.8257540000    -1.3912320000     0.2954840000
H       -3.9527410000    -3.4335280000    -0.8251340000
H       -1.6035850000    -3.4456820000    -1.6989760000
H       -0.1246520000    -1.5327880000    -1.3084710000
Bq        -0.5027314688    -2.9746950312    -1.2644042500
Bq        -0.4164849097    -2.8763496790    -1.2644042500
Bq        -0.3438128462    -2.7675882500    -1.2644042500
Bq        -0.2859587175    -2.6502716824    -1.2644042500
Bq        -0.2439124237    -2.5264072951    -1.2644042500
Bq        -0.6062848594    -3.0541543425    -1.3949304422
Bq        -0.5087808654    -2.9686456346    -1.3949304422
Bq        -0.4232721575    -2.8711416406    -1.3949304422
Bq        -0.3512218136    -2.7633106807    -1.3949304422
Bq        -0.2938626350    -2.6469977726    -1.3949304422
Bq        -0.2521760531    -2.5241930623    -1.3949304422
Bq        -0.6218198637    -3.0339087308    -1.5232232951
Bq        -0.5268255481    -2.9506009519    -1.5232232951
Bq        -0.4435177692    -2.8556066363    -1.5232232951
Bq        -0.3733219463    -2.7505511631    -1.5232232951
Bq        -0.3174391492    -2.6372320606    -1.5232232951
Bq        -0.2768255481    -2.5175882500    -1.5232232951
Bq        -1.8631197324    -1.6143067676    -1.6470876824
Bq        -1.9428011631    -1.7051660256    -1.6470876824
Bq        -0.6474160256    -3.0005511631    -1.6470876824
Bq        -0.5565567676    -2.9208697324    -1.6470876824
Bq        -0.4768753369    -2.8300104744    -1.6470876824
Bq        -0.4097351048    -2.7295280163    -1.6470876824
Bq        -0.3562848594    -2.6211416406    -1.6470876824
Bq        -0.3174391492    -2.5067058684    -1.6470876824
Bq        -1.7370411124    -1.5805241031    -1.7644042500
Bq        -1.8222106857    -1.6552158143    -1.7644042500
Bq        -1.8969023969    -1.7403853876    -1.7644042500
Bq        -0.6826353876    -2.9546523969    -1.7644042500
Bq        -0.5974658143    -2.8799606857    -1.7644042500
Bq        -0.5227741031    -2.7947911124    -1.7644042500
Bq        -0.4598382500    -2.7006009519    -1.7644042500
Bq        -0.4097351048    -2.5990018240    -1.7644042500
Bq        -0.3733219463    -2.4917321180    -1.7644042500
Bq        -1.4151732040    -1.5012677692    -1.8731656790
Bq        -1.5134414293    -1.5346253369    -1.8731656790
Bq        -1.6065149201    -1.5805241031    -1.8731656790
Bq        -1.6928011631    -1.6381787274    -1.8731656790
Bq        -1.7708237768    -1.7066027232    -1.8731656790
Bq        -1.8392477726    -1.7846253369    -1.8731656790
Bq        -1.8969023969    -1.8709115799    -1.8731656790
Bq        -0.7268753369    -2.8969977726    -1.8731656790
Bq        -0.6488527232    -2.8285737768    -1.8731656790
Bq        -0.5804287274    -2.7505511631    -1.8731656790
Bq        -0.5227741031    -2.6642649201    -1.8731656790
Bq        -0.4768753369    -2.5711914293    -1.8731656790
Bq        -0.4435177692    -2.4729232040    -1.8731656790
Bq        -0.4232721575    -2.3711416406    -1.8731656790
Bq        -0.5027314688    -2.2675882500    -1.9715110312
Bq        -0.9392401999    -1.6143067676    -1.9715110312
Bq        -1.0268255481    -1.5845755481    -1.9715110312
Bq        -1.1175422944    -1.5665308654    -1.9715110312
Bq        -1.2098382500    -1.5604814688    -1.9715110312
Bq        -1.3021342056    -1.5665308654    -1.9715110312
Bq        -1.3928509519    -1.5845755481    -1.9715110312
Bq        -1.4804363001    -1.6143067676    -1.9715110312
Bq        -1.5633916406    -1.6552158143    -1.9715110312
Bq        -1.6402975846    -1.7066027232    -1.9715110312
Bq        -1.7098382500    -1.7675882500    -1.9715110312
Bq        -1.7708237768    -1.8371289154    -1.9715110312
Bq        -1.8222106857    -1.9140348594    -1.9715110312
Bq        -1.8631197324    -1.9969901999    -1.9715110312
Bq        -0.7793789154    -2.8285737768    -1.9715110312
Bq        -0.7098382500    -2.7675882500    -1.9715110312
Bq        -0.6488527232    -2.6980475846    -1.9715110312
Bq        -0.5974658143    -2.6211416406    -1.9715110312
Bq        -0.5565567676    -2.5381863001    -1.9715110312
Bq        -0.5268255481    -2.4506009519    -1.9715110312
Bq        -0.5087808654    -2.3598842056    -1.9715110312
Bq        -0.6010768210    -2.2675882500    -2.0577575903
Bq        -0.6062848594    -2.1881289387    -2.0577575903
Bq        -0.6218198637    -2.1100291982    -2.0577575903
Bq        -0.6474160256    -2.0346253369    -2.0577575903
Bq        -0.6826353876    -1.9632075355    -2.0577575903
Bq        -0.7268753369    -1.8969977726    -2.0577575903
Bq        -0.7793789154    -1.8371289154    -2.0577575903
Bq        -0.8392477726    -1.7846253369    -2.0577575903
Bq        -0.9054575355    -1.7403853876    -2.0577575903
Bq        -0.9768753369    -1.7051660256    -2.0577575903
Bq        -1.0522791982    -1.6795698637    -2.0577575903
Bq        -1.1303789387    -1.6640348594    -2.0577575903
Bq        -1.2098382500    -1.6588268210    -2.0577575903
Bq        -1.2892975613    -1.6640348594    -2.0577575903
Bq        -1.3673973018    -1.6795698637    -2.0577575903
Bq        -1.4428011631    -1.7051660256    -2.0577575903
Bq        -1.5142189645    -1.7403853876    -2.0577575903
Bq        -1.5804287274    -1.7846253369    -2.0577575903
Bq        -1.6402975846    -1.8371289154    -2.0577575903
Bq        -1.6928011631    -1.8969977726    -2.0577575903
Bq        -1.7370411124    -1.9632075355    -2.0577575903
Bq        -1.7722604744    -2.0346253369    -2.0577575903
Bq        -1.7978566363    -2.1100291982    -2.0577575903
Bq        -1.8133916406    -2.1881289387    -2.0577575903
Bq        -0.9054575355    -2.7947911124    -2.0577575903
Bq        -0.8392477726    -2.7505511631    -2.0577575903
Bq        -0.7793789154    -2.6980475846    -2.0577575903
Bq        -0.7268753369    -2.6381787274    -2.0577575903
Bq        -0.6826353876    -2.5719689645    -2.0577575903
Bq        -0.6474160256    -2.5005511631    -2.0577575903
Bq        -0.6218198637    -2.4251473018    -2.0577575903
Bq        -0.6062848594    -2.3470475613    -2.0577575903
Bq        -0.7098382500    -2.2675882500    -2.1304296538
Bq        -0.7141158193    -2.2023251539    -2.1304296538
Bq        -0.7268753369    -2.1381787274    -2.1304296538
Bq        -0.7478984837    -2.0762465338    -2.1304296538
Bq        -0.7768255481    -2.0175882500    -2.1304296538
Bq        -0.8131615799    -1.9632075355    -2.1304296538
Bq        -0.8562848594    -1.9140348594    -2.1304296538
Bq        -0.9054575355    -1.8709115799    -2.1304296538
Bq        -0.9598382500    -1.8345755481    -2.1304296538
Bq        -1.0184965338    -1.8056484837    -2.1304296538
Bq        -1.0804287274    -1.7846253369    -2.1304296538
Bq        -1.1445751539    -1.7718658193    -2.1304296538
Bq        -1.2098382500    -1.7675882500    -2.1304296538
Bq        -1.2751013461    -1.7718658193    -2.1304296538
Bq        -1.3392477726    -1.7846253369    -2.1304296538
Bq        -1.4011799662    -1.8056484837    -2.1304296538
Bq        -1.4598382500    -1.8345755481    -2.1304296538
Bq        -1.5142189645    -1.8709115799    -2.1304296538
Bq        -1.5633916406    -1.9140348594    -2.1304296538
Bq        -1.6065149201    -1.9632075355    -2.1304296538
Bq        -1.6428509519    -2.0175882500    -2.1304296538
Bq        -1.6717780163    -2.0762465338    -2.1304296538
Bq        -1.6928011631    -2.1381787274    -2.1304296538
Bq        -1.7055606807    -2.2023251539    -2.1304296538
Bq        -1.7098382500    -2.2675882500    -2.1304296538
Bq        -1.7055606807    -2.3328513461    -2.1304296538
Bq        -1.6928011631    -2.3969977726    -2.1304296538
Bq        -1.6717780163    -2.4589299662    -2.1304296538
Bq        -1.6428509519    -2.5175882500    -2.1304296538
Bq        -1.0184965338    -2.7295280163    -2.1304296538
Bq        -0.9598382500    -2.7006009519    -2.1304296538
Bq        -0.9054575355    -2.6642649201    -2.1304296538
Bq        -0.8562848594    -2.6211416406    -2.1304296538
Bq        -0.8131615799    -2.5719689645    -2.1304296538
Bq        -0.7768255481    -2.5175882500    -2.1304296538
Bq        -0.7478984837    -2.4589299662    -2.1304296538
Bq        -0.7268753369    -2.3969977726    -2.1304296538
Bq        -0.7141158193    -2.3328513461    -2.1304296538
Bq        -0.8271548176    -2.2675882500    -2.1882837825
Bq        -0.8304287274    -2.2176380387    -2.1882837825
Bq        -0.8401944394    -2.1685424895    -2.1882837825
Bq        -0.8562848594    -2.1211416406    -2.1882837825
Bq        -0.8784246760    -2.0762465338    -2.1882837825
Bq        -0.9062350707    -2.0346253369    -2.1882837825
Bq        -0.9392401999    -1.9969901999    -2.1882837825
Bq        -0.9768753369    -1.9639850707    -2.1882837825
Bq        -1.0184965338    -1.9361746760    -2.1882837825
Bq        -1.0633916406    -1.9140348594    -2.1882837825
Bq        -1.1107924895    -1.8979444394    -2.1882837825
Bq        -1.1598880387    -1.8881787274    -2.1882837825
Bq        -1.2098382500    -1.8849048176    -2.1882837825
Bq        -1.2597884613    -1.8881787274    -2.1882837825
Bq        -1.3088840105    -1.8979444394    -2.1882837825
Bq        -1.3562848594    -1.9140348594    -2.1882837825
Bq        -1.4011799662    -1.9361746760    -2.1882837825
Bq        -1.4428011631    -1.9639850707    -2.1882837825
Bq        -1.4804363001    -1.9969901999    -2.1882837825
Bq        -1.5134414293    -2.0346253369    -2.1882837825
Bq        -1.5412518240    -2.0762465338    -2.1882837825
Bq        -1.5633916406    -2.1211416406    -2.1882837825
Bq        -1.5794820606    -2.1685424895    -2.1882837825
Bq        -1.5892477726    -2.2176380387    -2.1882837825
Bq        -1.5925216824    -2.2675882500    -2.1882837825
Bq        -1.5892477726    -2.3175384613    -2.1882837825
Bq        -1.5794820606    -2.3666340105    -2.1882837825
Bq        -1.5633916406    -2.4140348594    -2.1882837825
Bq        -1.5412518240    -2.4589299662    -2.1882837825
Bq        -1.5134414293    -2.5005511631    -2.1882837825
Bq        -1.4804363001    -2.5381863001    -2.1882837825
Bq        -1.4428011631    -2.5711914293    -2.1882837825
Bq        -1.2098382500    -2.6502716824    -2.1882837825
Bq        -1.1598880387    -2.6469977726    -2.1882837825
Bq        -1.1107924895    -2.6372320606    -2.1882837825
Bq        -1.0633916406    -2.6211416406    -2.1882837825
Bq        -1.0184965338    -2.5990018240    -2.1882837825
Bq        -0.9768753369    -2.5711914293    -2.1882837825
Bq        -0.9392401999    -2.5381863001    -2.1882837825
Bq        -0.9062350707    -2.5005511631    -2.1882837825
Bq        -0.8784246760    -2.4589299662    -2.1882837825
Bq        -0.8562848594    -2.4140348594    -2.1882837825
Bq        -0.8401944394    -2.3666340105    -2.1882837825
Bq        -0.8304287274    -2.3175384613    -2.1882837825
Bq        -0.9510192049    -2.2675882500    -2.2303300763
Bq        -0.9532334377    -2.2338055856    -2.2303300763
Bq        -0.9598382500    -2.2006009519    -2.2303300763
Bq        -0.9707206316    -2.1685424895    -2.2303300763
Bq        -0.9856943820    -2.1381787274    -2.2303300763
Bq        -1.0045032960    -2.1100291982    -2.2303300763
Bq        -1.0268255481    -2.0845755481    -2.2303300763
Bq        -1.0522791982    -2.0622532960    -2.2303300763
Bq        -1.0804287274    -2.0434443820    -2.2303300763
Bq        -1.1107924895    -2.0284706316    -2.2303300763
Bq        -1.1428509519    -2.0175882500    -2.2303300763
Bq        -1.1760555856    -2.0109834377    -2.2303300763
Bq        -1.2098382500    -2.0087692049    -2.2303300763
Bq        -1.2436209144    -2.0109834377    -2.2303300763
Bq        -1.2768255481    -2.0175882500    -2.2303300763
Bq        -1.3088840105    -2.0284706316    -2.2303300763
Bq        -1.3392477726    -2.0434443820    -2.2303300763

1
2
3
4
5
6
7
8
9
10
11
12
13
14
15
16
17
18
19
20
21
22
23
24
25
26
27
28
29
30
31
32
33
34
35
36
37
38
39
40
41
42
43
44
45
46
47
48
49
50
51
52
53
54
55
56
57
58
59
60
61
62
63
64
65
66
67
68
69
70
71
72
73
74
75
76
77
78
79
80
81
82
83
84
85
86
87
88
89
90
91
92
93
94
95
96
97
98
99
100
101
102
103
104
105
106
107
108
109
110
111
112
113
114
115
116
117
118
119
120
121
122
123
124
125
126
127
128
129
130
131
132
133
134
135
136
137
138
139
140
141
142
143
144
145
146
147
148
149
150
151
152
153
154
155
156
157
158
159
160
161
162
163
164
165
166
167
168
169
170
171
172
173
174
175
176
177
178
179
180
181
182
183
184
185
186
187
188
189
190
191
192
193
194
195
196
197
198
199
200
201
202
203
204
205
206
207
208
209
210
211
212
213
214
215
216
217
218
219
220
221
222
223
224
225
226
227
228
229
230
231
232
233
234
235
236

