%OldChk=/home/aartigas/chk/5_helicene_spe.chk
%nproc=8
%mem=1000MB
#P rb3lyp/6-311+g** NMR Guess=Read geom=connectivity

Title

0 1
C        0.6532410000     3.2578590000    -0.2025100000
C       -0.6532430000     3.2578600000     0.2025100000
C        1.3724950000     2.0329560000    -0.3208070000
C       -1.3724950000     2.0329560000     0.3208070000
C        0.7224740000     0.7956660000    -0.0503880000
C       -0.7224740000     0.7956670000     0.0503870000
C        2.7603850000     2.0539270000    -0.6742680000
C        3.5088660000     0.9139160000    -0.6713620000
C        2.9552260000    -0.3096220000    -0.1774790000
C        1.5747220000    -0.3611140000     0.1970940000
H        1.1834270000     4.1957400000    -0.3845990000
H       -1.1834290000     4.1957400000     0.3845990000
H        3.2062830000     3.0124230000    -0.9513920000
H        4.5600230000     0.9329560000    -0.9693330000
C        3.7830200000    -1.4430980000     0.0283090000
C        1.1374270000    -1.5075330000     0.9121090000
C        1.9736910000    -2.5843490000     1.1380620000
C        3.3018530000    -2.5715880000     0.6611770000
H        4.8257540000    -1.3912300000    -0.2954840000
H        0.1246520000    -1.5327880000     1.3084720000
H        1.6035860000    -3.4456820000     1.6989770000
H        3.9527420000    -3.4335260000     0.8251340000
C       -3.5088660000     0.9139150000     0.6713620000
C       -2.7603860000     2.0539260000     0.6742680000
C       -2.9552260000    -0.3096230000     0.1774790000
C       -1.5747220000    -0.3611140000    -0.1970940000
C       -3.7830200000    -1.4430990000    -0.0283090000
C       -3.3018520000    -2.5715890000    -0.6611770000
C       -1.9736900000    -2.5843490000    -1.1380610000
C       -1.1374260000    -1.5075340000    -0.9121090000
H       -4.5600220000     0.9329540000     0.9693340000
H       -3.2062830000     3.0124210000     0.9513920000
H       -4.8257540000    -1.3912320000     0.2954840000
H       -3.9527410000    -3.4335280000    -0.8251340000
H       -1.6035850000    -3.4456820000    -1.6989760000
H       -0.1246520000    -1.5327880000    -1.3084710000
Bq         1.1553785863    -0.2044613482     1.2768881403
Bq         1.1297824244    -0.1290574869     1.2768881403
Bq         1.0945630624    -0.0576396855     1.2768881403
Bq         1.0503231131     0.0085700774     1.2768881403
Bq         0.9978195346     0.0684389346     1.2768881403
Bq         0.9379506774     0.1209425131     1.2768881403
Bq         0.8717409145     0.1651824624     1.2768881403
Bq         0.8003231131     0.2004018244     1.2768881403
Bq         0.7249192518     0.2259979863     1.2768881403
Bq         0.6468195113     0.2415329906     1.2768881403
Bq         0.5673602000     0.2467410290     1.2768881403
Bq         0.4879008887     0.2415329906     1.2768881403
Bq         0.4098011482     0.2259979863     1.2768881403
Bq         0.3343972869     0.2004018244     1.2768881403
Bq         0.2629794855     0.1651824624     1.2768881403
Bq         0.1967697226     0.1209425131     1.2768881403
Bq         0.1369008654     0.0684389346     1.2768881403
Bq         0.0843972869     0.0085700774     1.2768881403
Bq         0.0401573376    -0.0576396855     1.2768881403
Bq         0.0049379756    -0.1290574869     1.2768881403
Bq        -0.0206581863    -0.2044613482     1.2768881403
Bq        -0.0361931906    -0.2825610887     1.2768881403
Bq        -0.0414012290    -0.3620204000     1.2768881403
Bq        -0.0361931906    -0.4414797113     1.2768881403
Bq        -0.0206581863    -0.5195794518     1.2768881403
Bq         1.1553785863    -0.5195794518     1.2768881403
Bq         1.1709135906    -0.4414797113     1.2768881403
Bq         1.2744669812    -0.3620204000     1.1906415812
Bq         1.2684175846    -0.2697244444     1.1906415812
Bq         1.2503729019    -0.1790076981     1.1906415812
Bq         1.2206416824    -0.0914223499     1.1906415812
Bq         1.1797326357    -0.0084670094     1.1906415812
Bq         1.1283457268     0.0684389346     1.1906415812
Bq         1.0673602000     0.1379796000     1.1906415812
Bq         0.9978195346     0.1989651268     1.1906415812
Bq         0.9209135906     0.2503520357     1.1906415812
Bq         0.8379582501     0.2912610824     1.1906415812
Bq         0.7503729019     0.3209923019     1.1906415812
Bq         0.6596561556     0.3390369846     1.1906415812
Bq         0.5673602000     0.3450863812     1.1906415812
Bq         0.4750642444     0.3390369846     1.1906415812
Bq         0.3843474981     0.3209923019     1.1906415812
Bq         0.2967621499     0.2912610824     1.1906415812
Bq         0.2138068094     0.2503520357     1.1906415812
Bq         0.1369008654     0.1989651268     1.1906415812
Bq         0.0673602000     0.1379796000     1.1906415812
Bq         0.0063746732     0.0684389346     1.1906415812
Bq        -0.0450122357    -0.0084670094     1.1906415812
Bq        -0.0859212824    -0.0914223499     1.1906415812
Bq        -0.1156525019    -0.1790076981     1.1906415812
Bq        -0.1336971846    -0.2697244444     1.1906415812
Bq        -0.1397465812    -0.3620204000     1.1906415812
Bq        -0.1336971846    -0.4543163556     1.1906415812
Bq        -0.1156525019    -0.5450331019     1.1906415812
Bq         1.2503729019    -0.5450331019     1.1906415812
Bq         1.2684175846    -0.4543163556     1.1906415812
Bq         1.2544243469     0.0346562701     1.0922962290
Bq         1.1967697226     0.1209425131     1.0922962290
Bq         1.1283457268     0.1989651268     1.0922962290
Bq         1.0503231131     0.2673891226     1.0922962290
Bq         0.9640368701     0.3250437469     1.0922962290
Bq         0.8709633793     0.3709425131     1.0922962290
Bq         0.7726951540     0.4043000808     1.0922962290
Bq         0.6709135906     0.4245456925     1.0922962290
Bq         0.5673602000     0.4313329403     1.0922962290
Bq         0.4638068094     0.4245456925     1.0922962290
Bq         0.3620252460     0.4043000808     1.0922962290
Bq         0.2637570207     0.3709425131     1.0922962290
Bq         0.1706835299     0.3250437469     1.0922962290
Bq         0.0843972869     0.2673891226     1.0922962290
Bq         0.0063746732     0.1989651268     1.0922962290
Bq        -0.0620493226     0.1209425131     1.0922962290
Bq        -0.1197039469     0.0346562701     1.0922962290
Bq        -0.1656027131    -0.0584172207     1.0922962290
Bq        -0.1989602808    -0.1566854460     1.0922962290
Bq        -0.2192058925    -0.2584670094     1.0922962290
Bq        -0.2259931403    -0.3620204000     1.0922962290
Bq        -0.2192058925    -0.4655737906     1.0922962290
Bq        -0.1989602808    -0.5673553540     1.0922962290
Bq         1.1797326357     0.2503520357     0.9835348000
Bq         1.0945630624     0.3250437469     0.9835348000
Bq         1.0003729019     0.3879796000     0.9835348000
Bq         0.8987737740     0.4380827452     0.9835348000
Bq         0.7915040680     0.4744959037     0.9835348000
Bq         0.6803991983     0.4965960364     0.9835348000
Bq         0.5673602000     0.5040050038     0.9835348000
Bq         0.4543212017     0.4965960364     0.9835348000
Bq         0.3432163320     0.4744959037     0.9835348000
Bq         0.2359466260     0.4380827452     0.9835348000
Bq         0.1343474981     0.3879796000     0.9835348000
Bq        -0.1826398000     0.0709923019     0.9835348000
Bq        -0.2327429452    -0.0306068260     0.9835348000
Bq        -0.2691561037    -0.1378765320     0.9835348000
Bq        -0.2912562364    -0.2489814017     0.9835348000
Bq        -0.2986652038    -0.3620204000     0.9835348000
Bq        -0.2912562364    -0.4750593983     0.9835348000
Bq        -0.2691561037    -0.5861642680     0.9835348000
Bq         1.1297824244     0.3709425131     0.8662182324
Bq         1.0292999663     0.4380827452     0.8662182324
Bq        -0.3486154150    -0.2414299226     0.8662182324
Bq        -0.3565193325    -0.3620204000     0.8662182324
Bq        -0.3486154150    -0.4826108774     0.8662182324
Bq        -0.3250389008    -0.6011380184     0.8662182324
Bq        -0.2861931906    -0.7155737906     0.8662182324
Bq        -0.3985656263    -0.3620204000     0.7423538451
Bq        -0.3903019969    -0.4880990201     0.7423538451
Bq        -0.3656525019    -0.6120204000     0.7423538451
Bq        -0.3250389008    -0.7316642106     0.7423538451
Bq        -0.4156027131    -0.4914299226     0.6140609922
Bq        -0.3903019969    -0.6186252123     0.6140609922
Bq        -0.3486154150    -0.7414299226     0.6140609922
Bq        -0.2912562364    -0.8577428307     0.6140609922
Bq        -0.3985656263    -0.6208394451     0.4835348000
Bq        -0.3565193325    -0.7447038324     0.4835348000
Bq        -0.2986652038    -0.8620204000     0.4835348000
Bq        -0.2259931403    -0.9707818290     0.4835348000
Bq        -0.2912562364    -0.8577428307     0.3530086078
Bq        -0.2192058925    -0.9655737906     0.3530086078
Bq        -0.1336971846    -1.0630777846     0.3530086078
Bq        -0.0361931906    -1.1485864925     0.3530086078
Bq         0.0716377693    -1.2206368364     0.3530086078
Bq        -0.1156525019    -1.0450331019     0.2247157549
Bq        -0.0206581863    -1.1283408808     0.2247157549
Bq         0.0843972869    -1.1985367037     0.2247157549
Bq         0.1977163894    -1.2544195008     0.2247157549
Bq         0.3173602000    -1.2950331019     0.2247157549
Bq        -0.0859212824    -1.0153018824     0.1008513676
Bq         0.0049379756    -1.0949833131     0.1008513676
Bq         0.1054204337    -1.1621235452     0.1008513676
Bq         0.2138068094    -1.2155737906     0.1008513676
Bq         0.3282425816    -1.2544195008     0.1008513676
Bq         0.4467697226    -1.2779960150     0.1008513676
Bq         0.5673602000    -1.2858999325     0.1008513676
Bq         0.0401573376    -1.0490845469    -0.0164652000
Bq         0.1343474981    -1.1120204000    -0.0164652000
Bq         0.2359466260    -1.1621235452    -0.0164652000
Bq         0.3432163320    -1.1985367037    -0.0164652000
Bq         0.4543212017    -1.2206368364    -0.0164652000
Bq         0.5673602000    -1.2280458038    -0.0164652000
Bq         0.6803991983    -1.2206368364    -0.0164652000
Bq         0.7915040680    -1.1985367037    -0.0164652000
Bq         0.8987737740    -1.1621235452    -0.0164652000
Bq         0.1706835299    -1.0490845469    -0.1252266290
Bq         0.2637570207    -1.0949833131    -0.1252266290
Bq         0.3620252460    -1.1283408808    -0.1252266290
Bq         0.4638068094    -1.1485864925    -0.1252266290
Bq         0.5673602000    -1.1553737403    -0.1252266290
Bq         0.6709135906    -1.1485864925    -0.1252266290
Bq         0.7726951540    -1.1283408808    -0.1252266290
Bq         0.8709633793    -1.0949833131    -0.1252266290
Bq         0.2138068094    -0.9743928357    -0.2235719812
Bq         0.2967621499    -1.0153018824    -0.2235719812
Bq         0.3843474981    -1.0450331019    -0.2235719812
Bq         0.4750642444    -1.0630777846    -0.2235719812
Bq         0.5673602000    -1.0691271812    -0.2235719812
Bq         0.6596561556    -1.0630777846    -0.2235719812
Bq         0.7503729019    -1.0450331019    -0.2235719812
Bq         0.8379582501    -1.0153018824    -0.2235719812
Bq         0.3343972869    -0.9244426244    -0.3098185403
Bq         0.4098011482    -0.9500387863    -0.3098185403
Bq         0.4879008887    -0.9655737906    -0.3098185403
Bq         0.5673602000    -0.9707818290    -0.3098185403
Bq         0.6468195113    -0.9655737906    -0.3098185403
Bq         0.7249192518    -0.9500387863    -0.3098185403
Bq         0.8003231131    -0.9244426244    -0.3098185403
Bq         0.8717409145    -0.8892232624    -0.3098185403
Bq         0.3760184838    -0.8239601663    -0.3824906038
Bq         0.4379506774    -0.8449833131    -0.3824906038
Bq         0.5020971039    -0.8577428307    -0.3824906038
Bq         0.5673602000    -0.8620204000    -0.3824906038
Bq         0.6326232961    -0.8577428307    -0.3824906038
Bq         0.6967697226    -0.8449833131    -0.3824906038
Bq         0.7587019162    -0.8239601663    -0.3824906038
Bq         0.8173602000    -0.7950331019    -0.3824906038
Bq         0.3760184838    -0.6934339740    -0.4403447325
Bq         0.4209135906    -0.7155737906    -0.4403447325
Bq         0.4683144395    -0.7316642106    -0.4403447325
Bq         0.5174099887    -0.7414299226    -0.4403447325
Bq         0.5673602000    -0.7447038324    -0.4403447325
Bq         0.6173104113    -0.7414299226    -0.4403447325
Bq         0.6664059605    -0.7316642106    -0.4403447325
Bq         0.7138068094    -0.7155737906    -0.4403447325
Bq         0.7587019162    -0.6934339740    -0.4403447325
Bq         0.8003231131    -0.6656235793    -0.4403447325
Bq         0.8379582501    -0.6326184501    -0.4403447325
Bq         0.8261792451    -0.3620204000    -0.4823910263
Bq         0.8239650123    -0.3282377356    -0.4823910263
Bq         0.8173602000    -0.2950331019    -0.4823910263
Bq         0.8064778184    -0.2629746395    -0.4823910263
Bq         0.7915040680    -0.2326108774    -0.4823910263
Bq         0.7726951540    -0.2044613482    -0.4823910263
Bq         0.4379506774    -0.5861642680    -0.4823910263
Bq         0.4683144395    -0.6011380184    -0.4823910263
Bq         0.5003729019    -0.6120204000    -0.4823910263
Bq         0.5335775356    -0.6186252123    -0.4823910263
Bq         0.5673602000    -0.6208394451    -0.4823910263
Bq         0.6011428644    -0.6186252123    -0.4823910263
Bq         0.6343474981    -0.6120204000    -0.4823910263
Bq         0.6664059605    -0.6011380184    -0.4823910263
Bq         0.6967697226    -0.5861642680    -0.4823910263

1
2
3
4
5
6
7
8
9
10
11
12
13
14
15
16
17
18
19
20
21
22
23
24
25
26
27
28
29
30
31
32
33
34
35
36
37
38
39
40
41
42
43
44
45
46
47
48
49
50
51
52
53
54
55
56
57
58
59
60
61
62
63
64
65
66
67
68
69
70
71
72
73
74
75
76
77
78
79
80
81
82
83
84
85
86
87
88
89
90
91
92
93
94
95
96
97
98
99
100
101
102
103
104
105
106
107
108
109
110
111
112
113
114
115
116
117
118
119
120
121
122
123
124
125
126
127
128
129
130
131
132
133
134
135
136
137
138
139
140
141
142
143
144
145
146
147
148
149
150
151
152
153
154
155
156
157
158
159
160
161
162
163
164
165
166
167
168
169
170
171
172
173
174
175
176
177
178
179
180
181
182
183
184
185
186
187
188
189
190
191
192
193
194
195
196
197
198
199
200
201
202
203
204
205
206
207
208
209
210
211
212
213
214
215
216
217
218
219
220
221
222
223
224
225
226
227
228
229
230
231
232
233
234
235
236

