%OldChk=/home/aartigas/chk/5_helicene_spe.chk
%nproc=8
%mem=1000MB
#P rb3lyp/6-311+g** NMR Guess=Read geom=connectivity

Title

0 1
C        0.6532410000     3.2578590000    -0.2025100000
C       -0.6532430000     3.2578600000     0.2025100000
C        1.3724950000     2.0329560000    -0.3208070000
C       -1.3724950000     2.0329560000     0.3208070000
C        0.7224740000     0.7956660000    -0.0503880000
C       -0.7224740000     0.7956670000     0.0503870000
C        2.7603850000     2.0539270000    -0.6742680000
C        3.5088660000     0.9139160000    -0.6713620000
C        2.9552260000    -0.3096220000    -0.1774790000
C        1.5747220000    -0.3611140000     0.1970940000
H        1.1834270000     4.1957400000    -0.3845990000
H       -1.1834290000     4.1957400000     0.3845990000
H        3.2062830000     3.0124230000    -0.9513920000
H        4.5600230000     0.9329560000    -0.9693330000
C        3.7830200000    -1.4430980000     0.0283090000
C        1.1374270000    -1.5075330000     0.9121090000
C        1.9736910000    -2.5843490000     1.1380620000
C        3.3018530000    -2.5715880000     0.6611770000
H        4.8257540000    -1.3912300000    -0.2954840000
H        0.1246520000    -1.5327880000     1.3084720000
H        1.6035860000    -3.4456820000     1.6989770000
H        3.9527420000    -3.4335260000     0.8251340000
C       -3.5088660000     0.9139150000     0.6713620000
C       -2.7603860000     2.0539260000     0.6742680000
C       -2.9552260000    -0.3096230000     0.1774790000
C       -1.5747220000    -0.3611140000    -0.1970940000
C       -3.7830200000    -1.4430990000    -0.0283090000
C       -3.3018520000    -2.5715890000    -0.6611770000
C       -1.9736900000    -2.5843490000    -1.1380610000
C       -1.1374260000    -1.5075340000    -0.9121090000
H       -4.5600220000     0.9329540000     0.9693340000
H       -3.2062830000     3.0124210000     0.9513920000
H       -4.8257540000    -1.3912320000     0.2954840000
H       -3.9527410000    -3.4335280000    -0.8251340000
H       -1.6035850000    -3.4456820000    -1.6989760000
H       -0.1246520000    -1.5327880000    -1.3084710000
Bq         4.3885175663    -0.4507573162     0.4489556038
Bq         4.4095407131    -0.3888251226     0.4489556038
Bq         4.4223002307    -0.3246786961     0.4489556038
Bq         4.5353392290    -0.2594156000     0.3762835403
Bq         4.5301311906    -0.1799562887     0.3762835403
Bq         4.5145961863    -0.1018565482     0.3762835403
Bq         4.4890000244    -0.0264526869     0.3762835403
Bq         4.4537806624     0.0449651145     0.3762835403
Bq         4.4095407131     0.1111748774     0.3762835403
Bq         4.3570371346     0.1710437346     0.3762835403
Bq         4.2971682774     0.2235473131     0.3762835403
Bq         4.2309585145     0.2677872624     0.3762835403
Bq         4.1595407131     0.3030066244     0.3762835403
Bq         4.0841368518     0.3286027863     0.3762835403
Bq         4.0060371113     0.3441377906     0.3762835403
Bq         3.9265778000     0.3493458290     0.3762835403
Bq         3.8471184887     0.3441377906     0.3762835403
Bq         3.7690187482     0.3286027863     0.3762835403
Bq         3.6936148869     0.3030066244     0.3762835403
Bq         3.6221970855     0.2677872624     0.3762835403
Bq         4.3570371346    -0.6898749346     0.3762835403
Bq         4.4095407131    -0.6300060774     0.3762835403
Bq         4.4537806624    -0.5637963145     0.3762835403
Bq         4.4890000244    -0.4923785131     0.3762835403
Bq         4.5145961863    -0.4169746518     0.3762835403
Bq         4.5301311906    -0.3388749113     0.3762835403
Bq         4.6336845812    -0.2594156000     0.2900369812
Bq         4.6276351846    -0.1671196444     0.2900369812
Bq         4.6095905019    -0.0764028981     0.2900369812
Bq         4.5798592824     0.0111824501     0.2900369812
Bq         4.5389502357     0.0941377906     0.2900369812
Bq         4.4875633268     0.1710437346     0.2900369812
Bq         4.4265778000     0.2405844000     0.2900369812
Bq         4.3570371346     0.3015699268     0.2900369812
Bq         4.2801311906     0.3529568357     0.2900369812
Bq         4.1971758501     0.3938658824     0.2900369812
Bq         4.1095905019     0.4235971019     0.2900369812
Bq         4.0188737556     0.4416417846     0.2900369812
Bq         3.9265778000     0.4476911812     0.2900369812
Bq         3.8342818444     0.4416417846     0.2900369812
Bq         3.7435650981     0.4235971019     0.2900369812
Bq         3.6559797499     0.3938658824     0.2900369812
Bq         3.5730244094     0.3529568357     0.2900369812
Bq         4.5389502357    -0.6129689906     0.2900369812
Bq         4.5798592824    -0.5300136501     0.2900369812
Bq         4.6095905019    -0.4424283019     0.2900369812
Bq         4.6276351846    -0.3517115556     0.2900369812
Bq         4.7199311403    -0.2594156000     0.1916916290
Bq         4.7131438925    -0.1558622094     0.1916916290
Bq         4.6928982808    -0.0540806460     0.1916916290
Bq         4.6595407131     0.0441875793     0.1916916290
Bq         4.6136419469     0.1372610701     0.1916916290
Bq         4.5559873226     0.2235473131     0.1916916290
Bq         4.4875633268     0.3015699268     0.1916916290
Bq         4.4095407131     0.3699939226     0.1916916290
Bq         4.3232544701     0.4276485469     0.1916916290
Bq         4.2301809793     0.4735473131     0.1916916290
Bq         4.1319127540     0.5069048808     0.1916916290
Bq         4.0301311906     0.5271504925     0.1916916290
Bq         3.9265778000     0.5339377403     0.1916916290
Bq         4.6928982808    -0.4647505540     0.1916916290
Bq         4.7131438925    -0.3629689906     0.1916916290
Bq         4.7926032038    -0.2594156000     0.0829302000
Bq         4.7851942364    -0.1463766017     0.0829302000
Bq         4.7630941037    -0.0352717320     0.0829302000
Bq         4.7266809452     0.0719979740     0.0829302000
Bq         4.6765778000     0.1735971019     0.0829302000
Bq         4.6136419469     0.2677872624     0.0829302000
Bq         4.5389502357     0.3529568357     0.0829302000
Bq         4.4537806624     0.4276485469     0.0829302000
Bq         4.3595905019     0.4905844000     0.0829302000
Bq         4.2579913740     0.5406875452     0.0829302000
Bq         4.1507216680     0.5771007037     0.0829302000
Bq         4.7851942364    -0.3724545983     0.0829302000
Bq         4.8504573325    -0.2594156000    -0.0343863676
Bq         4.8425534150    -0.1388251226    -0.0343863676
Bq         4.8189769008    -0.0202979816    -0.0343863676
Bq         4.7801311906     0.0941377906    -0.0343863676
Bq         4.7266809452     0.2025241663    -0.0343863676
Bq         4.6595407131     0.3030066244    -0.0343863676
Bq         4.5798592824     0.3938658824    -0.0343863676
Bq         4.4890000244     0.4735473131    -0.0343863676
Bq         4.3885175663     0.5406875452    -0.0343863676
Bq         4.2801311906     0.5941377906    -0.0343863676
Bq         4.8425534150    -0.3800060774    -0.0343863676
Bq         4.8925036263    -0.2594156000    -0.1582507549
Bq         4.8842399969    -0.1333369799    -0.1582507549
Bq         4.8595905019    -0.0094156000    -0.1582507549
Bq         4.8189769008     0.1102282106    -0.1582507549
Bq         4.7630941037     0.2235473131    -0.1582507549
Bq         4.6928982808     0.3286027863    -0.1582507549
Bq         4.8842399969    -0.3854942201    -0.1582507549
Bq         4.9180226614    -0.2594156000    -0.2865436078
Bq         4.9095407131    -0.1300060774    -0.2865436078
Bq         4.8842399969    -0.0028107877    -0.2865436078
Bq         4.8425534150     0.1199939226    -0.2865436078
Bq         4.7851942364     0.2363068307    -0.2865436078
Bq         4.9095407131    -0.3888251226    -0.2865436078
Bq         4.9265778000    -0.2594156000    -0.4170698000
Bq         4.9180226614    -0.1288894078    -0.4170698000
Bq         4.8925036263    -0.0005965549    -0.4170698000
Bq         4.8504573325     0.1232678324    -0.4170698000
Bq         4.9180226614    -0.3899417922    -0.4170698000
Bq         4.9180226614    -0.2594156000    -0.5475959922
Bq         4.9095407131    -0.1300060774    -0.5475959922
Bq         4.8842399969    -0.0028107877    -0.5475959922
Bq         4.9095407131    -0.3888251226    -0.5475959922
Bq         4.8925036263    -0.2594156000    -0.6758888451
Bq         4.8842399969    -0.1333369799    -0.6758888451
Bq         4.8595905019    -0.0094156000    -0.6758888451
Bq         4.8842399969    -0.3854942201    -0.6758888451
Bq         4.8504573325    -0.2594156000    -0.7997532324
Bq         4.8425534150    -0.1388251226    -0.7997532324
Bq         4.8189769008    -0.0202979816    -0.7997532324
Bq         3.3641555756    -0.9923785131    -0.7997532324
Bq         4.8189769008    -0.4985332184    -0.7997532324
Bq         4.8425534150    -0.3800060774    -0.7997532324
Bq         4.7926032038    -0.2594156000    -0.9170698000
Bq         4.7851942364    -0.1463766017    -0.9170698000
Bq         3.3993749376    -0.9464797469    -0.9170698000
Bq         3.4935650981    -1.0094156000    -0.9170698000
Bq         3.5951642260    -1.0595187452    -0.9170698000
Bq         3.7024339320    -1.0959319037    -0.9170698000
Bq         3.8135388017    -1.1180320364    -0.9170698000
Bq         3.9265778000    -1.1254410038    -0.9170698000
Bq         4.0396167983    -1.1180320364    -0.9170698000
Bq         4.7266809452    -0.5908291740    -0.9170698000
Bq         4.7630941037    -0.4835594680    -0.9170698000
Bq         4.7851942364    -0.3724545983    -0.9170698000
Bq         4.7199311403    -0.2594156000    -1.0258312290
Bq         4.7131438925    -0.1558622094    -1.0258312290
Bq         3.2971682774    -0.7423785131    -1.0258312290
Bq         3.3655922732    -0.8204011268    -1.0258312290
Bq         3.4436148869    -0.8888251226    -1.0258312290
Bq         3.5299011299    -0.9464797469    -1.0258312290
Bq         3.6229746207    -0.9923785131    -1.0258312290
Bq         3.7212428460    -1.0257360808    -1.0258312290
Bq         3.8230244094    -1.0459816925    -1.0258312290
Bq         3.9265778000    -1.0527689403    -1.0258312290
Bq         4.0301311906    -1.0459816925    -1.0258312290
Bq         4.1319127540    -1.0257360808    -1.0258312290
Bq         4.2301809793    -0.9923785131    -1.0258312290
Bq         4.5559873226    -0.7423785131    -1.0258312290
Bq         4.6136419469    -0.6560922701    -1.0258312290
Bq         4.6595407131    -0.5630187793    -1.0258312290
Bq         4.6928982808    -0.4647505540    -1.0258312290
Bq         4.7131438925    -0.3629689906    -1.0258312290
Bq         4.6336845812    -0.2594156000    -1.1241765812
Bq         4.6276351846    -0.1671196444    -1.1241765812
Bq         4.6095905019    -0.0764028981    -1.1241765812
Bq         3.2732963176     0.0111824501    -1.1241765812
Bq         3.2435650981    -0.0764028981    -1.1241765812
Bq         3.2732963176    -0.5300136501    -1.1241765812
Bq         3.3142053643    -0.6129689906    -1.1241765812
Bq         3.3655922732    -0.6898749346    -1.1241765812
Bq         3.4265778000    -0.7594156000    -1.1241765812
Bq         3.4961184654    -0.8204011268    -1.1241765812
Bq         3.5730244094    -0.8717880357    -1.1241765812
Bq         3.6559797499    -0.9126970824    -1.1241765812
Bq         3.7435650981    -0.9424283019    -1.1241765812
Bq         3.8342818444    -0.9604729846    -1.1241765812
Bq         3.9265778000    -0.9665223812    -1.1241765812
Bq         4.0188737556    -0.9604729846    -1.1241765812
Bq         4.1095905019    -0.9424283019    -1.1241765812
Bq         4.1971758501    -0.9126970824    -1.1241765812
Bq         4.2801311906    -0.8717880357    -1.1241765812
Bq         4.3570371346    -0.8204011268    -1.1241765812
Bq         4.4265778000    -0.7594156000    -1.1241765812
Bq         4.4875633268    -0.6898749346    -1.1241765812
Bq         4.5389502357    -0.6129689906    -1.1241765812
Bq         4.5798592824    -0.5300136501    -1.1241765812
Bq         4.6095905019    -0.4424283019    -1.1241765812
Bq         4.6276351846    -0.3517115556    -1.1241765812
Bq         4.5353392290    -0.2594156000    -1.2104231403
Bq         4.5301311906    -0.1799562887    -1.2104231403
Bq         4.5145961863    -0.1018565482    -1.2104231403
Bq         3.3993749376     0.0449651145    -1.2104231403
Bq         3.3641555756    -0.0264526869    -1.2104231403
Bq         3.3385594137    -0.1018565482    -1.2104231403
Bq         3.3230244094    -0.1799562887    -1.2104231403
Bq         3.3178163710    -0.2594156000    -1.2104231403
Bq         3.3230244094    -0.3388749113    -1.2104231403
Bq         3.3385594137    -0.4169746518    -1.2104231403
Bq         3.3641555756    -0.4923785131    -1.2104231403
Bq         3.3993749376    -0.5637963145    -1.2104231403
Bq         3.4436148869    -0.6300060774    -1.2104231403
Bq         3.4961184654    -0.6898749346    -1.2104231403
Bq         3.5559873226    -0.7423785131    -1.2104231403
Bq         3.6221970855    -0.7866184624    -1.2104231403
Bq         3.6936148869    -0.8218378244    -1.2104231403
Bq         3.7690187482    -0.8474339863    -1.2104231403
Bq         3.8471184887    -0.8629689906    -1.2104231403
Bq         3.9265778000    -0.8681770290    -1.2104231403
Bq         4.0060371113    -0.8629689906    -1.2104231403
Bq         4.0841368518    -0.8474339863    -1.2104231403
Bq         4.1595407131    -0.8218378244    -1.2104231403
Bq         4.2309585145    -0.7866184624    -1.2104231403
Bq         4.2971682774    -0.7423785131    -1.2104231403
Bq         4.3570371346    -0.6898749346    -1.2104231403
Bq         4.4095407131    -0.6300060774    -1.2104231403

1
2
3
4
5
6
7
8
9
10
11
12
13
14
15
16
17
18
19
20
21
22
23
24
25
26
27
28
29
30
31
32
33
34
35
36
37
38
39
40
41
42
43
44
45
46
47
48
49
50
51
52
53
54
55
56
57
58
59
60
61
62
63
64
65
66
67
68
69
70
71
72
73
74
75
76
77
78
79
80
81
82
83
84
85
86
87
88
89
90
91
92
93
94
95
96
97
98
99
100
101
102
103
104
105
106
107
108
109
110
111
112
113
114
115
116
117
118
119
120
121
122
123
124
125
126
127
128
129
130
131
132
133
134
135
136
137
138
139
140
141
142
143
144
145
146
147
148
149
150
151
152
153
154
155
156
157
158
159
160
161
162
163
164
165
166
167
168
169
170
171
172
173
174
175
176
177
178
179
180
181
182
183
184
185
186
187
188
189
190
191
192
193
194
195
196
197
198
199
200
201
202
203
204
205
206
207
208
209
210
211
212
213
214
215
216
217
218
219
220
221
222
223
224
225
226
227
228
229
230
231
232
233
234
235
236

