%nproc=8
%mem=1000MB
# rb3lyp/6-311+g** NMR geom=connectivity

Title

0 1
C          2.45076       -0.71174        0.00000
C          2.45076        0.71174        0.00000
C          1.25139        1.41137        0.00000
C         -0.00000        0.72289        0.00000
C         -1.25139        1.41137        0.00000
C         -2.45076        0.71174        0.00000
C         -2.45076       -0.71174        0.00000
C         -1.25139       -1.41137        0.00000
C         -0.00000       -0.72289        0.00000
C          1.25139       -1.41137        0.00000
H          3.40873       -1.25791        0.00000
H          3.40873        1.25791        0.00000
H          1.24972        2.51472        0.00000
H         -1.24972        2.51472        0.00000
H         -3.40873        1.25791        0.00000
H         -3.40873       -1.25791        0.00000
H         -1.24972       -2.51472        0.00000
H          1.24972       -2.51472        0.00000
Bq         1.2340500000     0.0000000000     0.0000000000
Bq        -1.2659500000    -2.5000000000     1.0000000000
Bq        -1.2659500000    -1.5000000000     1.0000000000
Bq        -1.2659500000    -0.5000000000     1.0000000000
Bq        -1.2659500000     0.5000000000     1.0000000000
Bq        -1.2659500000     1.5000000000     1.0000000000
Bq        -1.2659500000     2.5000000000     1.0000000000
Bq        -0.2659500000    -2.5000000000     1.0000000000
Bq        -0.2659500000    -1.5000000000     1.0000000000
Bq        -0.2659500000    -0.5000000000     1.0000000000
Bq        -0.2659500000     0.5000000000     1.0000000000
Bq        -0.2659500000     1.5000000000     1.0000000000
Bq        -0.2659500000     2.5000000000     1.0000000000
Bq         0.7340500000    -2.5000000000     1.0000000000
Bq         0.7340500000    -1.5000000000     1.0000000000
Bq         0.7340500000    -0.5000000000     1.0000000000
Bq         0.7340500000     0.5000000000     1.0000000000
Bq         0.7340500000     1.5000000000     1.0000000000
Bq         0.7340500000     2.5000000000     1.0000000000
Bq         1.7340500000    -2.5000000000     1.0000000000
Bq         1.7340500000    -1.5000000000     1.0000000000
Bq         1.7340500000    -0.5000000000     1.0000000000
Bq         1.7340500000     0.5000000000     1.0000000000
Bq         1.7340500000     1.5000000000     1.0000000000
Bq         1.7340500000     2.5000000000     1.0000000000
Bq         2.7340500000    -2.5000000000     1.0000000000
Bq         2.7340500000    -1.5000000000     1.0000000000
Bq         2.7340500000    -0.5000000000     1.0000000000
Bq         2.7340500000     0.5000000000     1.0000000000
Bq         2.7340500000     1.5000000000     1.0000000000
Bq         2.7340500000     2.5000000000     1.0000000000
Bq         3.7340500000    -2.5000000000     1.0000000000
Bq         3.7340500000    -1.5000000000     1.0000000000
Bq         3.7340500000    -0.5000000000     1.0000000000
Bq         3.7340500000     0.5000000000     1.0000000000
Bq         3.7340500000     1.5000000000     1.0000000000
Bq         3.7340500000     2.5000000000     1.0000000000

1
2
3
4
5
6
7
8
9
10
11
12
13
14
15
16
17
18
19
20
21
22
23
24
25
26
27
28
29
30
31
32
33
34
35
36
37
38
39
40
41
42
43
44
45
46
47
48
49
50
51
52
53
54
55

