%nproc=8
%mem=1000MB
# rb3lyp/6-311+g** NMR geom=connectivity

Title

0 1
C          2.45076       -0.71174        0.00000
C          2.45076        0.71174        0.00000
C          1.25139        1.41137        0.00000
C         -0.00000        0.72289        0.00000
C         -1.25139        1.41137        0.00000
C         -2.45076        0.71174        0.00000
C         -2.45076       -0.71174        0.00000
C         -1.25139       -1.41137        0.00000
C         -0.00000       -0.72289        0.00000
C          1.25139       -1.41137        0.00000
H          3.40873       -1.25791        0.00000
H          3.40873        1.25791        0.00000
H          1.24972        2.51472        0.00000
H         -1.24972        2.51472        0.00000
H         -3.40873        1.25791        0.00000
H         -3.40873       -1.25791        0.00000
H         -1.24972       -2.51472        0.00000
H          1.24972       -2.51472        0.00000
Bq         0.2340500000    -1.0000000000     0.8000000000
Bq         0.2340500000    -1.0000000000     1.3000000000
Bq         0.2340500000    -1.0000000000     0.7000000000
Bq         0.2340500000    -1.0000000000     1.4000000000
Bq         0.2340500000    -1.0000000000     0.6000000000
Bq         0.2340500000    -1.0000000000     1.5000000000
Bq         0.2340500000    -1.0000000000     0.5000000000
Bq         0.2340500000    -1.0000000000     1.0000000000
Bq         0.2340500000    -0.5000000000     1.1000000000
Bq         0.2340500000    -0.5000000000     0.9000000000
Bq         0.2340500000    -0.5000000000     1.2000000000
Bq         0.2340500000    -0.5000000000     0.8000000000
Bq         0.2340500000    -0.5000000000     1.3000000000
Bq         0.2340500000    -0.5000000000     0.7000000000
Bq         0.2340500000    -0.5000000000     1.4000000000
Bq         0.2340500000    -0.5000000000     0.6000000000
Bq         0.2340500000    -0.5000000000     1.5000000000
Bq         0.2340500000    -0.5000000000     0.5000000000
Bq         0.2340500000    -0.5000000000     1.0000000000
Bq         0.2340500000     0.0000000000     1.1000000000
Bq         0.2340500000     0.0000000000     0.9000000000
Bq         0.2340500000     0.0000000000     1.2000000000
Bq         0.2340500000     0.0000000000     0.8000000000
Bq         0.2340500000     0.0000000000     1.3000000000
Bq         0.2340500000     0.0000000000     0.7000000000
Bq         0.2340500000     0.0000000000     1.4000000000
Bq         0.2340500000     0.0000000000     0.6000000000
Bq         0.2340500000     0.0000000000     1.5000000000
Bq         0.2340500000     0.0000000000     0.5000000000
Bq         0.2340500000     0.0000000000     1.0000000000
Bq         0.2340500000     0.5000000000     1.1000000000
Bq         0.2340500000     0.5000000000     0.9000000000
Bq         0.2340500000     0.5000000000     1.2000000000
Bq         0.2340500000     0.5000000000     0.8000000000
Bq         0.2340500000     0.5000000000     1.3000000000
Bq         0.2340500000     0.5000000000     0.7000000000
Bq         0.2340500000     0.5000000000     1.4000000000
Bq         0.2340500000     0.5000000000     0.6000000000
Bq         0.2340500000     0.5000000000     1.5000000000
Bq         0.2340500000     0.5000000000     0.5000000000
Bq         0.2340500000     0.5000000000     1.0000000000
Bq         0.2340500000     1.0000000000     1.1000000000
Bq         0.2340500000     1.0000000000     0.9000000000
Bq         0.2340500000     1.0000000000     1.2000000000
Bq         0.2340500000     1.0000000000     0.8000000000
Bq         0.2340500000     1.0000000000     1.3000000000
Bq         0.2340500000     1.0000000000     0.7000000000
Bq         0.2340500000     1.0000000000     1.4000000000
Bq         0.2340500000     1.0000000000     0.6000000000
Bq         0.2340500000     1.0000000000     1.5000000000
Bq         0.2340500000     1.0000000000     0.5000000000
Bq         0.2340500000     1.0000000000     1.0000000000
Bq         0.2340500000     1.5000000000     1.1000000000
Bq         0.2340500000     1.5000000000     0.9000000000
Bq         0.2340500000     1.5000000000     1.2000000000
Bq         0.2340500000     1.5000000000     0.8000000000
Bq         0.2340500000     1.5000000000     1.3000000000
Bq         0.2340500000     1.5000000000     0.7000000000
Bq         0.2340500000     1.5000000000     1.4000000000
Bq         0.2340500000     1.5000000000     0.6000000000
Bq         0.2340500000     1.5000000000     1.5000000000
Bq         0.2340500000     1.5000000000     0.5000000000
Bq         0.2340500000     1.5000000000     1.0000000000
Bq         0.2340500000     2.0000000000     1.1000000000
Bq         0.2340500000     2.0000000000     0.9000000000
Bq         0.2340500000     2.0000000000     1.2000000000
Bq         0.2340500000     2.0000000000     0.8000000000
Bq         0.2340500000     2.0000000000     1.3000000000
Bq         0.2340500000     2.0000000000     0.7000000000
Bq         0.2340500000     2.0000000000     1.4000000000
Bq         0.2340500000     2.0000000000     0.6000000000
Bq         0.2340500000     2.0000000000     1.5000000000
Bq         0.2340500000     2.0000000000     0.5000000000
Bq         0.2340500000     2.0000000000     1.0000000000
Bq         0.2340500000     2.5000000000     1.1000000000
Bq         0.2340500000     2.5000000000     0.9000000000
Bq         0.2340500000     2.5000000000     1.2000000000
Bq         0.2340500000     2.5000000000     0.8000000000
Bq         0.2340500000     2.5000000000     1.3000000000
Bq         0.2340500000     2.5000000000     0.7000000000
Bq         0.2340500000     2.5000000000     1.4000000000
Bq         0.2340500000     2.5000000000     0.6000000000
Bq         0.2340500000     2.5000000000     1.5000000000
Bq         0.2340500000     2.5000000000     0.5000000000
Bq         0.2340500000     2.5000000000     1.0000000000
Bq         0.7340500000    -2.5000000000     1.1000000000
Bq         0.7340500000    -2.5000000000     0.9000000000
Bq         0.7340500000    -2.5000000000     1.2000000000
Bq         0.7340500000    -2.5000000000     0.8000000000
Bq         0.7340500000    -2.5000000000     1.3000000000
Bq         0.7340500000    -2.5000000000     0.7000000000
Bq         0.7340500000    -2.5000000000     1.4000000000
Bq         0.7340500000    -2.5000000000     0.6000000000
Bq         0.7340500000    -2.5000000000     1.5000000000
Bq         0.7340500000    -2.5000000000     0.5000000000
Bq         0.7340500000    -2.5000000000     1.0000000000
Bq         0.7340500000    -2.0000000000     1.1000000000
Bq         0.7340500000    -2.0000000000     0.9000000000
Bq         0.7340500000    -2.0000000000     1.2000000000
Bq         0.7340500000    -2.0000000000     0.8000000000
Bq         0.7340500000    -2.0000000000     1.3000000000
Bq         0.7340500000    -2.0000000000     0.7000000000
Bq         0.7340500000    -2.0000000000     1.4000000000
Bq         0.7340500000    -2.0000000000     0.6000000000
Bq         0.7340500000    -2.0000000000     1.5000000000
Bq         0.7340500000    -2.0000000000     0.5000000000
Bq         0.7340500000    -2.0000000000     1.0000000000
Bq         0.7340500000    -1.5000000000     1.1000000000
Bq         0.7340500000    -1.5000000000     0.9000000000
Bq         0.7340500000    -1.5000000000     1.2000000000
Bq         0.7340500000    -1.5000000000     0.8000000000
Bq         0.7340500000    -1.5000000000     1.3000000000
Bq         0.7340500000    -1.5000000000     0.7000000000
Bq         0.7340500000    -1.5000000000     1.4000000000
Bq         0.7340500000    -1.5000000000     0.6000000000
Bq         0.7340500000    -1.5000000000     1.5000000000
Bq         0.7340500000    -1.5000000000     0.5000000000
Bq         0.7340500000    -1.5000000000     1.0000000000
Bq         0.7340500000    -1.0000000000     1.1000000000
Bq         0.7340500000    -1.0000000000     0.9000000000
Bq         0.7340500000    -1.0000000000     1.2000000000
Bq         0.7340500000    -1.0000000000     0.8000000000
Bq         0.7340500000    -1.0000000000     1.3000000000
Bq         0.7340500000    -1.0000000000     0.7000000000
Bq         0.7340500000    -1.0000000000     1.4000000000
Bq         0.7340500000    -1.0000000000     0.6000000000
Bq         0.7340500000    -1.0000000000     1.5000000000
Bq         0.7340500000    -1.0000000000     0.5000000000
Bq         0.7340500000    -1.0000000000     1.0000000000
Bq         0.7340500000    -0.5000000000     1.1000000000
Bq         0.7340500000    -0.5000000000     0.9000000000
Bq         0.7340500000    -0.5000000000     1.2000000000
Bq         0.7340500000    -0.5000000000     0.8000000000
Bq         0.7340500000    -0.5000000000     1.3000000000
Bq         0.7340500000    -0.5000000000     0.7000000000
Bq         0.7340500000    -0.5000000000     1.4000000000
Bq         0.7340500000    -0.5000000000     0.6000000000
Bq         0.7340500000    -0.5000000000     1.5000000000
Bq         0.7340500000    -0.5000000000     0.5000000000
Bq         0.7340500000    -0.5000000000     1.0000000000
Bq         0.7340500000     0.0000000000     1.1000000000
Bq         0.7340500000     0.0000000000     0.9000000000
Bq         0.7340500000     0.0000000000     1.2000000000
Bq         0.7340500000     0.0000000000     0.8000000000
Bq         0.7340500000     0.0000000000     1.3000000000
Bq         0.7340500000     0.0000000000     0.7000000000
Bq         0.7340500000     0.0000000000     1.4000000000
Bq         0.7340500000     0.0000000000     0.6000000000
Bq         0.7340500000     0.0000000000     1.5000000000
Bq         0.7340500000     0.0000000000     0.5000000000
Bq         0.7340500000     0.0000000000     1.0000000000
Bq         0.7340500000     0.5000000000     1.1000000000
Bq         0.7340500000     0.5000000000     0.9000000000
Bq         0.7340500000     0.5000000000     1.2000000000
Bq         0.7340500000     0.5000000000     0.8000000000
Bq         0.7340500000     0.5000000000     1.3000000000
Bq         0.7340500000     0.5000000000     0.7000000000
Bq         0.7340500000     0.5000000000     1.4000000000
Bq         0.7340500000     0.5000000000     0.6000000000
Bq         0.7340500000     0.5000000000     1.5000000000
Bq         0.7340500000     0.5000000000     0.5000000000
Bq         0.7340500000     0.5000000000     1.0000000000
Bq         0.7340500000     1.0000000000     1.1000000000
Bq         0.7340500000     1.0000000000     0.9000000000
Bq         0.7340500000     1.0000000000     1.2000000000
Bq         0.7340500000     1.0000000000     0.8000000000
Bq         0.7340500000     1.0000000000     1.3000000000
Bq         0.7340500000     1.0000000000     0.7000000000
Bq         0.7340500000     1.0000000000     1.4000000000
Bq         0.7340500000     1.0000000000     0.6000000000
Bq         0.7340500000     1.0000000000     1.5000000000
Bq         0.7340500000     1.0000000000     0.5000000000
Bq         0.7340500000     1.0000000000     1.0000000000
Bq         0.7340500000     1.5000000000     1.1000000000
Bq         0.7340500000     1.5000000000     0.9000000000
Bq         0.7340500000     1.5000000000     1.2000000000
Bq         0.7340500000     1.5000000000     0.8000000000
Bq         0.7340500000     1.5000000000     1.3000000000
Bq         0.7340500000     1.5000000000     0.7000000000
Bq         0.7340500000     1.5000000000     1.4000000000
Bq         0.7340500000     1.5000000000     0.6000000000
Bq         0.7340500000     1.5000000000     1.5000000000
Bq         0.7340500000     1.5000000000     0.5000000000
Bq         0.7340500000     1.5000000000     1.0000000000
Bq         0.7340500000     2.0000000000     1.1000000000
Bq         0.7340500000     2.0000000000     0.9000000000
Bq         0.7340500000     2.0000000000     1.2000000000
Bq         0.7340500000     2.0000000000     0.8000000000
Bq         0.7340500000     2.0000000000     1.3000000000
Bq         0.7340500000     2.0000000000     0.7000000000
Bq         0.7340500000     2.0000000000     1.4000000000
Bq         0.7340500000     2.0000000000     0.6000000000
Bq         0.7340500000     2.0000000000     1.5000000000
Bq         0.7340500000     2.0000000000     0.5000000000
Bq         0.7340500000     2.0000000000     1.0000000000
Bq         0.7340500000     2.5000000000     1.1000000000
Bq         0.7340500000     2.5000000000     0.9000000000
Bq         0.7340500000     2.5000000000     1.2000000000
Bq         0.7340500000     2.5000000000     0.8000000000
Bq         0.7340500000     2.5000000000     1.3000000000

1
2
3
4
5
6
7
8
9
10
11
12
13
14
15
16
17
18
19
20
21
22
23
24
25
26
27
28
29
30
31
32
33
34
35
36
37
38
39
40
41
42
43
44
45
46
47
48
49
50
51
52
53
54
55
56
57
58
59
60
61
62
63
64
65
66
67
68
69
70
71
72
73
74
75
76
77
78
79
80
81
82
83
84
85
86
87
88
89
90
91
92
93
94
95
96
97
98
99
100
101
102
103
104
105
106
107
108
109
110
111
112
113
114
115
116
117
118
119
120
121
122
123
124
125
126
127
128
129
130
131
132
133
134
135
136
137
138
139
140
141
142
143
144
145
146
147
148
149
150
151
152
153
154
155
156
157
158
159
160
161
162
163
164
165
166
167
168
169
170
171
172
173
174
175
176
177
178
179
180
181
182
183
184
185
186
187
188
189
190
191
192
193
194
195
196
197
198
199
200
201
202
203
204
205
206
207
208
209
210
211
212
213
214
215
216
217
218

