%nproc=8
# rb3lyp/6-311+g** NMR

Title

0 1
C       -4.050055800     -0.577186200      0.813671200
H       -5.026380400     -1.008272700      1.002476000
C       -3.938155200      0.661780400      0.240087600
H       -4.825242400      1.233889000     -0.011129500
C       -2.676841000      1.243324600      0.005757800
C       -1.497412100      0.505152700      0.284825300
C       -1.650833200     -0.733872800      0.940402600
H       -0.771364600     -1.273096700      1.263375300
C       -2.889854800     -1.262403500      1.199430700
H       -2.968370600     -2.212456300      1.715267600
C       -2.577318500      2.596369600     -0.419293000
H       -3.487072800      3.141223900     -0.647405500
C       -1.374189500      3.214789600     -0.436403000
H       -1.299731500      4.274201900     -0.657814400
C       -0.171948800      2.499409000     -0.173458800
C       -0.204391700      1.101843700      0.019268900
C        1.051349100      3.204256000     -0.067622200
H        1.042734400      4.281949900     -0.189699700
C        2.194209100      2.548744600      0.257957700
H        3.116852700      3.091284800      0.433472700
C        2.221647300      1.133656200      0.293499000
C        1.048693100      0.394552800      0.030241200
C        3.448336300      0.461463300      0.557393900
H        4.309579400      1.060605400      0.833484600
C        3.542734600     -0.885592600      0.474946300
H        4.473146700     -1.393970400      0.703882200
C        2.449005200     -1.647444700     -0.019631900
C        1.215070400     -1.005725800     -0.301357300
C        0.253111300     -1.743444000     -1.021659100
H       -0.654135600     -1.253505100     -1.346284700
C        0.449419300     -3.062859700     -1.341377900
H       -0.308316200     -3.594430900     -1.905406000
C        1.625172600     -3.720796700     -0.955254100
H        1.767004800     -4.768740400     -1.192701900
C        2.610987200     -3.014417700     -0.318305000
H        3.552561200     -3.490281300     -0.064636700
Bq        -1.4170169333     1.8601482000    -0.1198838000
Bq        -3.9777963981    -0.3178544247     1.3629220200
Bq        -3.9729316269     0.1668447350     1.2402718728
Bq        -3.9680668558     0.6515438947     1.1176217257
Bq        -3.9632020847     1.1362430544     0.9949715786
Bq        -3.9583373136     1.6209422141     0.8723214314
Bq        -3.9534725424     2.1056413738     0.7496712843
Bq        -3.9486077713     2.5903405335     0.6270211372
Bq        -3.9437430002     3.0750396931     0.5043709900
Bq        -3.9388782291     3.5597388528     0.3817208429
Bq        -3.9340134580     4.0444380125     0.2590706958
Bq        -3.4781892389    -0.3178544247     1.3827383393
Bq        -3.4733244678     0.1668447350     1.2600881922
Bq        -3.4684596966     0.6515438947     1.1374380450
Bq        -3.4635949255     1.1362430544     1.0147878979
Bq        -3.4587301544     1.6209422141     0.8921377508
Bq        -3.4538653833     2.1056413738     0.7694876036
Bq        -3.4490006122     2.5903405335     0.6468374565
Bq        -3.4441358410     3.0750396931     0.5241873093
Bq        -3.4392710699     3.5597388528     0.4015371622
Bq        -3.4344062988     4.0444380125     0.2788870151
Bq        -2.9785820797    -0.3178544247     1.4025546586
Bq        -2.9737173086     0.1668447350     1.2799045115
Bq        -2.9688525375     0.6515438947     1.1572543643
Bq        -2.9639877664     1.1362430544     1.0346042172
Bq        -2.9591229952     1.6209422141     0.9119540701
Bq        -2.9542582241     2.1056413738     0.7893039229
Bq        -2.9493934530     2.5903405335     0.6666537758
Bq        -2.9445286819     3.0750396931     0.5440036287
Bq        -2.9396639108     3.5597388528     0.4213534815
Bq        -2.9347991396     4.0444380125     0.2987033344
Bq        -2.4789749206    -0.3178544247     1.4223709779
Bq        -2.4741101494     0.1668447350     1.2997208308
Bq        -2.4692453783     0.6515438947     1.1770706837
Bq        -2.4643806072     1.1362430544     1.0544205365
Bq        -2.4595158361     1.6209422141     0.9317703894
Bq        -2.4546510650     2.1056413738     0.8091202423
Bq        -2.4497862938     2.5903405335     0.6864700951
Bq        -2.4449215227     3.0750396931     0.5638199480
Bq        -2.4400567516     3.5597388528     0.4411698009
Bq        -2.4351919805     4.0444380125     0.3185196537
Bq        -1.9793677614    -0.3178544247     1.4421872973
Bq        -1.9745029903     0.1668447350     1.3195371501
Bq        -1.9696382192     0.6515438947     1.1968870030
Bq        -1.9647734480     1.1362430544     1.0742368559
Bq        -1.9599086769     1.6209422141     0.9515867087
Bq        -1.9550439058     2.1056413738     0.8289365616
Bq        -1.9501791347     2.5903405335     0.7062864144
Bq        -1.9453143635     3.0750396931     0.5836362673
Bq        -1.9404495924     3.5597388528     0.4609861202
Bq        -1.9355848213     4.0444380125     0.3383359730
Bq        -1.4797606022    -0.3178544247     1.4620036166
Bq        -1.4748958311     0.1668447350     1.3393534694
Bq        -1.4700310600     0.6515438947     1.2167033223
Bq        -1.4651662889     1.1362430544     1.0940531752
Bq        -1.4603015177     1.6209422141     0.9714030280
Bq        -1.4554367466     2.1056413738     0.8487528809
Bq        -1.4505719755     2.5903405335     0.7261027338
Bq        -1.4457072044     3.0750396931     0.6034525866
Bq        -1.4408424333     3.5597388528     0.4808024395
Bq        -1.4359776621     4.0444380125     0.3581522924
Bq        -0.9801534431    -0.3178544247     1.4818199359
Bq        -0.9752886719     0.1668447350     1.3591697888
Bq        -0.9704239008     0.6515438947     1.2365196416
Bq        -0.9655591297     1.1362430544     1.1138694945
Bq        -0.9606943586     1.6209422141     0.9912193474
Bq        -0.9558295875     2.1056413738     0.8685692002
Bq        -0.9509648163     2.5903405335     0.7459190531
Bq        -0.9461000452     3.0750396931     0.6232689059
Bq        -0.9412352741     3.5597388528     0.5006187588
Bq        -0.9363705030     4.0444380125     0.3779686117
Bq        -0.4805462839    -0.3178544247     1.5016362552
Bq        -0.4756815128     0.1668447350     1.3789861081
Bq        -0.4708167417     0.6515438947     1.2563359609
Bq        -0.4659519705     1.1362430544     1.1336858138
Bq        -0.4610871994     1.6209422141     1.0110356667
Bq        -0.4562224283     2.1056413738     0.8883855195
Bq        -0.4513576572     2.5903405335     0.7657353724
Bq        -0.4464928861     3.0750396931     0.6430852253
Bq        -0.4416281149     3.5597388528     0.5204350781
Bq        -0.4367633438     4.0444380125     0.3977849310
Bq         0.0190608753    -0.3178544247     1.5214525745
Bq         0.0239256464     0.1668447350     1.3988024274
Bq         0.0287904175     0.6515438947     1.2761522803
Bq         0.0336551886     1.1362430544     1.1535021331
Bq         0.0385199597     1.6209422141     1.0308519860
Bq         0.0433847309     2.1056413738     0.9082018389
Bq         0.0482495020     2.5903405335     0.7855516917
Bq         0.0531142731     3.0750396931     0.6629015446
Bq         0.0579790442     3.5597388528     0.5402513975
Bq         0.0628438154     4.0444380125     0.4176012503
Bq         0.5186680344    -0.3178544247     1.5412688939
Bq         0.5235328055     0.1668447350     1.4186187467
Bq         0.5283975767     0.6515438947     1.2959685996
Bq         0.5332623478     1.1362430544     1.1733184525
Bq         0.5381271189     1.6209422141     1.0506683053
Bq         0.5429918900     2.1056413738     0.9280181582
Bq         0.5478566612     2.5903405335     0.8053680110
Bq         0.5527214323     3.0750396931     0.6827178639
Bq         0.5575862034     3.5597388528     0.5600677168
Bq         0.5624509745     4.0444380125     0.4374175696

