%nproc=8
# rb3lyp/6-311+g** NMR

Title

0 1
C       -4.050055800     -0.577186200      0.813671200
H       -5.026380400     -1.008272700      1.002476000
C       -3.938155200      0.661780400      0.240087600
H       -4.825242400      1.233889000     -0.011129500
C       -2.676841000      1.243324600      0.005757800
C       -1.497412100      0.505152700      0.284825300
C       -1.650833200     -0.733872800      0.940402600
H       -0.771364600     -1.273096700      1.263375300
C       -2.889854800     -1.262403500      1.199430700
H       -2.968370600     -2.212456300      1.715267600
C       -2.577318500      2.596369600     -0.419293000
H       -3.487072800      3.141223900     -0.647405500
C       -1.374189500      3.214789600     -0.436403000
H       -1.299731500      4.274201900     -0.657814400
C       -0.171948800      2.499409000     -0.173458800
C       -0.204391700      1.101843700      0.019268900
C        1.051349100      3.204256000     -0.067622200
H        1.042734400      4.281949900     -0.189699700
C        2.194209100      2.548744600      0.257957700
H        3.116852700      3.091284800      0.433472700
C        2.221647300      1.133656200      0.293499000
C        1.048693100      0.394552800      0.030241200
C        3.448336300      0.461463300      0.557393900
H        4.309579400      1.060605400      0.833484600
C        3.542734600     -0.885592600      0.474946300
H        4.473146700     -1.393970400      0.703882200
C        2.449005200     -1.647444700     -0.019631900
C        1.215070400     -1.005725800     -0.301357300
C        0.253111300     -1.743444000     -1.021659100
H       -0.654135600     -1.253505100     -1.346284700
C        0.449419300     -3.062859700     -1.341377900
H       -0.308316200     -3.594430900     -1.905406000
C        1.625172600     -3.720796700     -0.955254100
H        1.767004800     -4.768740400     -1.192701900
C        2.610987200     -3.014417700     -0.318305000
H        3.552561200     -3.490281300     -0.064636700
Bq        -2.7838586833    -0.0272008000     0.5806958667
Bq        -5.2916526295    -1.8436584467     2.5584347627
Bq        -5.2907979682    -1.3934014834     2.3410228576
Bq        -5.2899433068    -0.9431445200     2.1236109524
Bq        -5.2890886454    -0.4928875567     1.9061990473
Bq        -5.2882339840    -0.0426305933     1.6887871421
Bq        -5.2873793227     0.4076263700     1.4713752369
Bq        -5.2865246613     0.8578833334     1.2539633318
Bq        -5.2856699999     1.3081402968     1.0365514266
Bq        -5.2848153385     1.7583972601     0.8191395215
Bq        -5.2839606772     2.2086542235     0.6017276163
Bq        -4.7916564928    -1.8436584467     2.5604002825
Bq        -4.7908018314    -1.3934014834     2.3429883773
Bq        -4.7899471701    -0.9431445200     2.1255764721
Bq        -4.7890925087    -0.4928875567     1.9081645670
Bq        -4.7882378473    -0.0426305933     1.6907526618
Bq        -4.7873831859     0.4076263700     1.4733407566
Bq        -4.7865285246     0.8578833334     1.2559288515
Bq        -4.7856738632     1.3081402968     1.0385169463
Bq        -4.7848192018     1.7583972601     0.8211050412
Bq        -4.7839645405     2.2086542235     0.6036931360
Bq        -4.2916603561    -1.8436584467     2.5623658022
Bq        -4.2908056947    -1.3934014834     2.3449538970
Bq        -4.2899510334    -0.9431445200     2.1275419918
Bq        -4.2890963720    -0.4928875567     1.9101300867
Bq        -4.2882417106    -0.0426305933     1.6927181815
Bq        -4.2873870492     0.4076263700     1.4753062764
Bq        -4.2865323879     0.8578833334     1.2578943712
Bq        -4.2856777265     1.3081402968     1.0404824660
Bq        -4.2848230651     1.7583972601     0.8230705609
Bq        -4.2839684037     2.2086542235     0.6056586557
Bq        -3.7916642194    -1.8436584467     2.5643313219
Bq        -3.7908095580    -1.3934014834     2.3469194167
Bq        -3.7899548966    -0.9431445200     2.1295075116
Bq        -3.7891002353    -0.4928875567     1.9120956064
Bq        -3.7882455739    -0.0426305933     1.6946837012
Bq        -3.7873909125     0.4076263700     1.4772717961
Bq        -3.7865362511     0.8578833334     1.2598598909
Bq        -3.7856815898     1.3081402968     1.0424479857
Bq        -3.7848269284     1.7583972601     0.8250360806
Bq        -3.7839722670     2.2086542235     0.6076241754
Bq        -3.2916680827    -1.8436584467     2.5662968416
Bq        -3.2908134213    -1.3934014834     2.3488849364
Bq        -3.2899587599    -0.9431445200     2.1314730313
Bq        -3.2891040985    -0.4928875567     1.9140611261
Bq        -3.2882494372    -0.0426305933     1.6966492209
Bq        -3.2873947758     0.4076263700     1.4792373158
Bq        -3.2865401144     0.8578833334     1.2618254106
Bq        -3.2856854530     1.3081402968     1.0444135055
Bq        -3.2848307917     1.7583972601     0.8270016003
Bq        -3.2839761303     2.2086542235     0.6095896951
Bq        -2.7916719459    -1.8436584467     2.5682623613
Bq        -2.7908172846    -1.3934014834     2.3508504561
Bq        -2.7899626232    -0.9431445200     2.1334385510
Bq        -2.7891079618    -0.4928875567     1.9160266458
Bq        -2.7882533005    -0.0426305933     1.6986147407
Bq        -2.7873986391     0.4076263700     1.4812028355
Bq        -2.7865439777     0.8578833334     1.2637909303
Bq        -2.7856893163     1.3081402968     1.0463790252
Bq        -2.7848346550     1.7583972601     0.8289671200
Bq        -2.7839799936     2.2086542235     0.6115552148
Bq        -2.2916758092    -1.8436584467     2.5702278810
Bq        -2.2908211479    -1.3934014834     2.3528159759
Bq        -2.2899664865    -0.9431445200     2.1354040707
Bq        -2.2891118251    -0.4928875567     1.9179921655
Bq        -2.2882571637    -0.0426305933     1.7005802604
Bq        -2.2874025024     0.4076263700     1.4831683552
Bq        -2.2865478410     0.8578833334     1.2657564500
Bq        -2.2856931796     1.3081402968     1.0483445449
Bq        -2.2848385182     1.7583972601     0.8309326397
Bq        -2.2839838569     2.2086542235     0.6135207346
Bq        -1.7916796725    -1.8436584467     2.5721934007
Bq        -1.7908250111    -1.3934014834     2.3547814956
Bq        -1.7899703498    -0.9431445200     2.1373695904
Bq        -1.7891156884    -0.4928875567     1.9199576852
Bq        -1.7882610270    -0.0426305933     1.7025457801
Bq        -1.7874063656     0.4076263700     1.4851338749
Bq        -1.7865517043     0.8578833334     1.2677219698
Bq        -1.7856970429     1.3081402968     1.0503100646
Bq        -1.7848423815     1.7583972601     0.8328981594
Bq        -1.7839877202     2.2086542235     0.6154862543
Bq        -1.2916835358    -1.8436584467     2.5741589204
Bq        -1.2908288744    -1.3934014834     2.3567470153
Bq        -1.2899742130    -0.9431445200     2.1393351101
Bq        -1.2891195517    -0.4928875567     1.9219232050
Bq        -1.2882648903    -0.0426305933     1.7045112998
Bq        -1.2874102289     0.4076263700     1.4870993946
Bq        -1.2865555676     0.8578833334     1.2696874895
Bq        -1.2857009062     1.3081402968     1.0522755843
Bq        -1.2848462448     1.7583972601     0.8348636791
Bq        -1.2839915834     2.2086542235     0.6174517740
Bq        -0.7916873991    -1.8436584467     2.5761244401
Bq        -0.7908327377    -1.3934014834     2.3587125350
Bq        -0.7899780763    -0.9431445200     2.1413006298
Bq        -0.7891234150    -0.4928875567     1.9238887247
Bq        -0.7882687536    -0.0426305933     1.7064768195
Bq        -0.7874140922     0.4076263700     1.4890649143
Bq        -0.7865594308     0.8578833334     1.2716530092
Bq        -0.7857047695     1.3081402968     1.0542411040
Bq        -0.7848501081     1.7583972601     0.8368291988
Bq        -0.7839954467     2.2086542235     0.6194172937

