%nproc=8
# rb3lyp/6-311+g** NMR

Title

0 1
C       -4.050055800     -0.577186200      0.813671200
H       -5.026380400     -1.008272700      1.002476000
C       -3.938155200      0.661780400      0.240087600
H       -4.825242400      1.233889000     -0.011129500
C       -2.676841000      1.243324600      0.005757800
C       -1.497412100      0.505152700      0.284825300
C       -1.650833200     -0.733872800      0.940402600
H       -0.771364600     -1.273096700      1.263375300
C       -2.889854800     -1.262403500      1.199430700
H       -2.968370600     -2.212456300      1.715267600
C       -2.577318500      2.596369600     -0.419293000
H       -3.487072800      3.141223900     -0.647405500
C       -1.374189500      3.214789600     -0.436403000
H       -1.299731500      4.274201900     -0.657814400
C       -0.171948800      2.499409000     -0.173458800
C       -0.204391700      1.101843700      0.019268900
C        1.051349100      3.204256000     -0.067622200
H        1.042734400      4.281949900     -0.189699700
C        2.194209100      2.548744600      0.257957700
H        3.116852700      3.091284800      0.433472700
C        2.221647300      1.133656200      0.293499000
C        1.048693100      0.394552800      0.030241200
C        3.448336300      0.461463300      0.557393900
H        4.309579400      1.060605400      0.833484600
C        3.542734600     -0.885592600      0.474946300
H        4.473146700     -1.393970400      0.703882200
C        2.449005200     -1.647444700     -0.019631900
C        1.215070400     -1.005725800     -0.301357300
C        0.253111300     -1.743444000     -1.021659100
H       -0.654135600     -1.253505100     -1.346284700
C        0.449419300     -3.062859700     -1.341377900
H       -0.308316200     -3.594430900     -1.905406000
C        1.625172600     -3.720796700     -0.955254100
H        1.767004800     -4.768740400     -1.192701900
C        2.610987200     -3.014417700     -0.318305000
H        3.552561200     -3.490281300     -0.064636700
Bq         2.3209144833    -0.2581818000     0.1725152000
Bq        -0.2580041477    -2.8750257412     0.1363699073
Bq        -0.2764594003    -2.3801122710     0.2050726050
Bq        -0.2949146530    -1.8851988008     0.2737753028
Bq        -0.3133699057    -1.3902853306     0.3424780006
Bq        -0.3318251584    -0.8953718605     0.4111806984
Bq        -0.3502804111    -0.4004583903     0.4798833962
Bq        -0.3687356637     0.0944550799     0.5485860940
Bq        -0.3871909164     0.5893685501     0.6172887918
Bq        -0.4056461691     1.0842820203     0.6859914896
Bq        -0.4241014218     1.5791954904     0.7546941874
Bq         0.2248771026    -2.8750257412     0.2660838162
Bq         0.2064218499    -2.3801122710     0.3347865140
Bq         0.1879665972    -1.8851988008     0.4034892118
Bq         0.1695113445    -1.3902853306     0.4721919096
Bq         0.1510560919    -0.8953718605     0.5408946074
Bq         0.1326008392    -0.4004583903     0.6095973052
Bq         0.1141455865     0.0944550799     0.6783000030
Bq         0.0956903338     0.5893685501     0.7470027008
Bq         0.0772350811     1.0842820203     0.8157053986
Bq         0.0587798285     1.5791954904     0.8844080963
Bq         0.7077583528    -2.8750257412     0.3957977251
Bq         0.6893031001    -2.3801122710     0.4645004229
Bq         0.6708478474    -1.8851988008     0.5332031207
Bq         0.6523925948    -1.3902853306     0.6019058185
Bq         0.6339373421    -0.8953718605     0.6706085163
Bq         0.6154820894    -0.4004583903     0.7393112141
Bq         0.5970268367     0.0944550799     0.8080139119
Bq         0.5785715841     0.5893685501     0.8767166097
Bq         0.5601163314     1.0842820203     0.9454193075
Bq         0.5416610787     1.5791954904     1.0141220053
Bq         1.1906396030    -2.8750257412     0.5255116341
Bq         1.1721843504    -2.3801122710     0.5942143319
Bq         1.1537290977    -1.8851988008     0.6629170297
Bq         1.1352738450    -1.3902853306     0.7316197275
Bq         1.1168185923    -0.8953718605     0.8003224253
Bq         1.0983633396    -0.4004583903     0.8690251231
Bq         1.0799080870     0.0944550799     0.9377278209
Bq         1.0614528343     0.5893685501     1.0064305186
Bq         1.0429975816     1.0842820203     1.0751332164
Bq         1.0245423289     1.5791954904     1.1438359142
Bq         1.6735208533    -2.8750257412     0.6552255430
Bq         1.6550656006    -2.3801122710     0.7239282408
Bq         1.6366103479    -1.8851988008     0.7926309386
Bq         1.6181550952    -1.3902853306     0.8613336364
Bq         1.5996998426    -0.8953718605     0.9300363342
Bq         1.5812445899    -0.4004583903     0.9987390320
Bq         1.5627893372     0.0944550799     1.0674417298
Bq         1.5443340845     0.5893685501     1.1361444276
Bq         1.5258788318     1.0842820203     1.2048471254
Bq         1.5074235792     1.5791954904     1.2735498232
Bq         2.1564021035    -2.8750257412     0.7849394520
Bq         2.1379468508    -2.3801122710     0.8536421498
Bq         2.1194915981    -1.8851988008     0.9223448476
Bq         2.1010363455    -1.3902853306     0.9910475454
Bq         2.0825810928    -0.8953718605     1.0597502432
Bq         2.0641258401    -0.4004583903     1.1284529409
Bq         2.0456705874     0.0944550799     1.1971556387
Bq         2.0272153348     0.5893685501     1.2658583365
Bq         2.0087600821     1.0842820203     1.3345610343
Bq         1.9903048294     1.5791954904     1.4032637321
Bq         2.6392833537    -2.8750257412     0.9146533609
Bq         2.6208281010    -2.3801122710     0.9833560587
Bq         2.6023728484    -1.8851988008     1.0520587565
Bq         2.5839175957    -1.3902853306     1.1207614543
Bq         2.5654623430    -0.8953718605     1.1894641521
Bq         2.5470070903    -0.4004583903     1.2581668499
Bq         2.5285518377     0.0944550799     1.3268695477
Bq         2.5100965850     0.5893685501     1.3955722455
Bq         2.4916413323     1.0842820203     1.4642749433
Bq         2.4731860796     1.5791954904     1.5329776411
Bq         3.1221646040    -2.8750257412     1.0443672699
Bq         3.1037093513    -2.3801122710     1.1130699677
Bq         3.0852540986    -1.8851988008     1.1817726655
Bq         3.0667988459    -1.3902853306     1.2504753632
Bq         3.0483435932    -0.8953718605     1.3191780610
Bq         3.0298883406    -0.4004583903     1.3878807588
Bq         3.0114330879     0.0944550799     1.4565834566
Bq         2.9929778352     0.5893685501     1.5252861544
Bq         2.9745225825     1.0842820203     1.5939888522
Bq         2.9560673299     1.5791954904     1.6626915500
Bq         3.6050458542    -2.8750257412     1.1740811788
Bq         3.5865906015    -2.3801122710     1.2427838766
Bq         3.5681353488    -1.8851988008     1.3114865744
Bq         3.5496800962    -1.3902853306     1.3801892722
Bq         3.5312248435    -0.8953718605     1.4488919700
Bq         3.5127695908    -0.4004583903     1.5175946678
Bq         3.4943143381     0.0944550799     1.5862973656
Bq         3.4758590855     0.5893685501     1.6550000634
Bq         3.4574038328     1.0842820203     1.7237027612
Bq         3.4389485801     1.5791954904     1.7924054590
Bq         4.0879271044    -2.8750257412     1.3037950878
Bq         4.0694718517    -2.3801122710     1.3724977855
Bq         4.0510165991    -1.8851988008     1.4412004833
Bq         4.0325613464    -1.3902853306     1.5099031811
Bq         4.0141060937    -0.8953718605     1.5786058789
Bq         3.9956508410    -0.4004583903     1.6473085767
Bq         3.9771955884     0.0944550799     1.7160112745
Bq         3.9587403357     0.5893685501     1.7847139723
Bq         3.9402850830     1.0842820203     1.8534166701
Bq         3.9218298303     1.5791954904     1.9221193679

