%nproc=8
%mem=1000MB
# rb3lyp/6-311+g** NMR geom=connectivity

Title

0 1
C    -4.0500558   -0.5771862    0.8136712
H    -5.0263804   -1.0082727    1.0024760
C    -3.9381552    0.6617804    0.2400876
H    -4.8252424    1.2338890   -0.0111295
C    -2.6768410    1.2433246    0.0057578
C    -1.4974121    0.5051527    0.2848253
C    -1.6508332   -0.7338728    0.9404026
H    -0.7713646   -1.2730967    1.2633753
C    -2.8898548   -1.2624035    1.1994307
H    -2.9683706   -2.2124563    1.7152676
C    -2.5773185    2.5963696   -0.4192930
H    -3.4870728    3.1412239   -0.6474055
C    -1.3741895    3.2147896   -0.4364030
H    -1.2997315    4.2742019   -0.6578144
C    -0.1719488    2.4994090   -0.1734588
C    -0.2043917    1.1018437    0.0192689
C     1.0513491    3.2042560   -0.0676222
H     1.0427344    4.2819499   -0.1896997
C     2.1942091    2.5487446    0.2579577
H     3.1168527    3.0912848    0.4334727
C     2.2216473    1.1336562    0.2934990
C     1.0486931    0.3945528    0.0302412
C     3.4483363    0.4614633    0.5573939
H     4.3095794    1.0606054    0.8334846
C     3.5427346   -0.8855926    0.4749463
H     4.4731467   -1.3939704    0.7038822
C     2.4490052   -1.6474447   -0.0196319
C     1.2150704   -1.0057258   -0.3013573
C     0.2531113   -1.7434440   -1.0216591
H    -0.6541356   -1.2535051   -1.3462847
C     0.4494193   -3.0628597   -1.3413779
H    -0.3083162   -3.5944309   -1.9054060
C     1.6251726   -3.7207967   -0.9552541
H     1.7670048   -4.7687404   -1.1927019
C     2.6109872   -3.0144177   -0.3183050
H     3.5525612   -3.4902813   -0.0646367
Bq         2.6649622180    -2.8607980821     0.8190595868
Bq         2.6392833537    -2.8750257412     0.9146533609
Bq         2.5951492367    -2.3943399300     1.0789498328
Bq         2.6465069654    -2.3658846120     0.8877622846
Bq         2.6208281010    -2.3801122710     0.9833560587
Bq         2.5766939840    -1.8994264598     1.1476525306
Bq         2.6280517127    -1.8709711418     0.9564649824
Bq         2.6023728484    -1.8851988008     1.0520587565
Bq         2.5582387314    -1.4045129897     1.2163552284
Bq         2.6095964600    -1.3760576716     1.0251676802
Bq         2.5839175957    -1.3902853306     1.1207614543
Bq         2.5397834787    -0.9095995195     1.2850579262
Bq         2.5911412073    -0.8811442014     1.0938703780
Bq         2.5654623430    -0.8953718605     1.1894641521
Bq         2.5213282260    -0.4146860493     1.3537606240
Bq         2.5726859547    -0.3862307313     1.1625730758
Bq         2.5470070903    -0.4004583903     1.2581668499
Bq         2.5028729733     0.0802274209     1.4224633218
Bq         2.5542307020     0.1086827389     1.2312757736
Bq         2.5285518377     0.0944550799     1.3268695477
Bq         2.4844177207     0.5751408910     1.4911660196
Bq         2.5357754493     0.6035962091     1.2999784714
Bq         2.5100965850     0.5893685501     1.3955722455
Bq         2.4659624680     1.0700543612     1.5598687174
Bq         2.5173201966     1.0985096793     1.3686811692
Bq         2.4916413323     1.0842820203     1.4642749433
Bq         2.4475072153     1.5649678314     1.6285714152
Bq         2.4988649440     1.5934231495     1.4373838670
Bq         2.4731860796     1.5791954904     1.5329776411
Bq         2.4290519626     2.0598813016     1.6972741130
Bq         2.4804096913     2.0883366196     1.5060865648
Bq         2.4547308270     2.0741089606     1.6016803389
Bq         3.0964857396    -2.8892534002     1.1399610440
Bq         3.1478434683    -2.8607980821     0.9487734958
Bq         3.1221646040    -2.8750257412     1.0443672699
Bq         3.0780304870    -2.3943399300     1.2086637418
Bq         3.1293882156    -2.3658846120     1.0174761936
Bq         3.1037093513    -2.3801122710     1.1130699677
Bq         3.0595752343    -1.8994264598     1.2773664395
Bq         3.1109329629    -1.8709711418     1.0861788914
Bq         3.0852540986    -1.8851988008     1.1817726655
Bq         3.0411199816    -1.4045129897     1.3460691373
Bq         3.0924777102    -1.3760576716     1.1548815892
Bq         3.0667988459    -1.3902853306     1.2504753632
Bq         3.0226647289    -0.9095995195     1.4147718351
Bq         3.0740224576    -0.8811442014     1.2235842869
Bq         3.0483435932    -0.8953718605     1.3191780610
Bq         3.0042094763    -0.4146860493     1.4834745329
Bq         3.0555672049    -0.3862307313     1.2922869847
Bq         3.0298883406    -0.4004583903     1.3878807588
Bq         2.9857542236     0.0802274209     1.5521772307
Bq         3.0371119522     0.1086827389     1.3609896825
Bq         3.0114330879     0.0944550799     1.4565834566
Bq         2.9672989709     0.5751408910     1.6208799285
Bq         3.0186566995     0.6035962091     1.4296923803
Bq         2.9929778352     0.5893685501     1.5252861544
Bq         2.9488437182     1.0700543612     1.6895826263
Bq         3.0002014469     1.0985096793     1.4983950781
Bq         2.9745225825     1.0842820203     1.5939888522
Bq         2.9303884655     1.5649678314     1.7582853241
Bq         2.9817461942     1.5934231495     1.5670977759
Bq         2.9560673299     1.5791954904     1.6626915500
Bq         2.9119332129     2.0598813016     1.8269880219
Bq         2.9632909415     2.0883366196     1.6358004737
Bq         2.9376120772     2.0741089606     1.7313942478
Bq         3.5793669899    -2.8892534002     1.2696749529
Bq         3.6307247185    -2.8607980821     1.0784874047
Bq         3.6050458542    -2.8750257412     1.1740811788
Bq         3.5609117372    -2.3943399300     1.3383776507
Bq         3.6122694658    -2.3658846120     1.1471901025
Bq         3.5865906015    -2.3801122710     1.2427838766
Bq         3.5424564845    -1.8994264598     1.4070803485
Bq         3.5938142132    -1.8709711418     1.2158928003
Bq         3.5681353488    -1.8851988008     1.3114865744
Bq         3.5240012318    -1.4045129897     1.4757830463
Bq         3.5753589605    -1.3760576716     1.2845954981
Bq         3.5496800962    -1.3902853306     1.3801892722
Bq         3.5055459792    -0.9095995195     1.5444857441
Bq         3.5569037078    -0.8811442014     1.3532981959
Bq         3.5312248435    -0.8953718605     1.4488919700
Bq         3.4870907265    -0.4146860493     1.6131884419
Bq         3.5384484551    -0.3862307313     1.4220008937
Bq         3.5127695908    -0.4004583903     1.5175946678
Bq         3.4686354738     0.0802274209     1.6818911397
Bq         3.5199932025     0.1086827389     1.4907035915
Bq         3.4943143381     0.0944550799     1.5862973656
Bq         3.4501802211     0.5751408910     1.7505938375
Bq         3.5015379498     0.6035962091     1.5594062893
Bq         3.4758590855     0.5893685501     1.6550000634
Bq         3.4317249685     1.0700543612     1.8192965353
Bq         3.4830826971     1.0985096793     1.6281089871
Bq         3.4574038328     1.0842820203     1.7237027612
Bq         3.4132697158     1.5649678314     1.8879992331
Bq         3.4646274444     1.5934231495     1.6968116849
Bq         3.4389485801     1.5791954904     1.7924054590
Bq         3.3948144631     2.0598813016     1.9567019308
Bq         3.4461721917     2.0883366196     1.7655143827
Bq         3.4204933274     2.0741089606     1.8611081568
Bq         4.0622482401    -2.8892534002     1.3993888618
Bq         4.1136059687    -2.8607980821     1.2082013137
Bq         4.0879271044    -2.8750257412     1.3037950878
Bq         4.0437929874    -2.3943399300     1.4680915596
Bq         4.0951507161    -2.3658846120     1.2769040115
Bq         4.0694718517    -2.3801122710     1.3724977855
Bq         4.0253377347    -1.8994264598     1.5367942574
Bq         4.0766954634    -1.8709711418     1.3456067092
Bq         4.0510165991    -1.8851988008     1.4412004833
Bq         4.0068824821    -1.4045129897     1.6054969552
Bq         4.0582402107    -1.3760576716     1.4143094070
Bq         4.0325613464    -1.3902853306     1.5099031811
Bq         3.9884272294    -0.9095995195     1.6741996530
Bq         4.0397849580    -0.8811442014     1.4830121048
Bq         4.0141060937    -0.8953718605     1.5786058789
Bq         3.9699719767    -0.4146860493     1.7429023508
Bq         4.0213297054    -0.3862307313     1.5517148026
Bq         3.9956508410    -0.4004583903     1.6473085767
Bq         3.9515167240     0.0802274209     1.8116050486
Bq         4.0028744527     0.1086827389     1.6204175004
Bq         3.9771955884     0.0944550799     1.7160112745
Bq         3.9330614714     0.5751408910     1.8803077464
Bq         3.9844192000     0.6035962091     1.6891201982
Bq         3.9587403357     0.5893685501     1.7847139723
Bq         3.9146062187     1.0700543612     1.9490104442
Bq         3.9659639473     1.0985096793     1.7578228960
Bq         3.9402850830     1.0842820203     1.8534166701
Bq         3.8961509660     1.5649678314     2.0177131420
Bq         3.9475086947     1.5934231495     1.8265255938
Bq         3.9218298303     1.5791954904     1.9221193679
Bq         3.8776957133     2.0598813016     2.0864158398
Bq         3.9290534420     2.0883366196     1.8952282916
Bq         3.9033745777     2.0741089606     1.9908220657
Bq         4.5451294903    -2.8892534002     1.5291027708
Bq         4.5964872190    -2.8607980821     1.3379152226
Bq         4.5708083547    -2.8750257412     1.4335089967
Bq         4.5266742377    -2.3943399300     1.5978054686
Bq         4.5780319663    -2.3658846120     1.4066179204
Bq         4.5523531020    -2.3801122710     1.5022116945
Bq         4.5082189850    -1.8994264598     1.6665081664
Bq         4.5595767136    -1.8709711418     1.4753206182
Bq         4.5338978493    -1.8851988008     1.5709143923
Bq         4.4897637323    -1.4045129897     1.7352108642
Bq         4.5411214609    -1.3760576716     1.5440233160
Bq         4.5154425966    -1.3902853306     1.6396170901
Bq         4.4713084796    -0.9095995195     1.8039135620
Bq         4.5226662083    -0.8811442014     1.6127260138
Bq         4.4969873439    -0.8953718605     1.7083197879
Bq         4.4528532269    -0.4146860493     1.8726162598
Bq         4.5042109556    -0.3862307313     1.6814287116
Bq         4.4785320913    -0.4004583903     1.7770224857
Bq         4.4343979743     0.0802274209     1.9413189576
Bq         4.4857557029     0.1086827389     1.7501314094
Bq         4.4600768386     0.0944550799     1.8457251835
Bq         4.4159427216     0.5751408910     2.0100216554
Bq         4.4673004502     0.6035962091     1.8188341072
Bq         4.4416215859     0.5893685501     1.9144278813
Bq         4.3974874689     1.0700543612     2.0787243532
Bq         4.4488451976     1.0985096793     1.8875368050
Bq         4.4231663332     1.0842820203     1.9831305791
Bq         4.3790322162     1.5649678314     2.1474270509
Bq         4.4303899449     1.5934231495     1.9562395028
Bq         4.4047110806     1.5791954904     2.0518332768
Bq         4.3605769636     2.0598813016     2.2161297487
Bq         4.4119346922     2.0883366196     2.0249422005
Bq         4.3862558279     2.0741089606     2.1205359746

1
2
3
4
5
6
7
8
9
10
11
12
13
14
15
16
17
18
19
20
21
22
23
24
25
26
27
28
29
30
31
32
33
34
35
36
37
38
39
40
41
42
43
44
45
46
47
48
49
50
51
52
53
54
55
56
57
58
59
60
61
62
63
64
65
66
67
68
69
70
71
72
73
74
75
76
77
78
79
80
81
82
83
84
85
86
87
88
89
90
91
92
93
94
95
96
97
98
99
100
101
102
103
104
105
106
107
108
109
110
111
112
113
114
115
116
117
118
119
120
121
122
123
124
125
126
127
128
129
130
131
132
133
134
135
136
137
138
139
140
141
142
143
144
145
146
147
148
149
150
151
152
153
154
155
156
157
158
159
160
161
162
163
164
165
166
167
168
169
170
171
172
173
174
175
176
177
178
179
180
181
182
183
184
185
186
187
188
189
190
191
192
193
194
195
196
197
198
199
200

