%nproc=8
%mem=1000MB
# rb3lyp/6-311+g** NMR geom=connectivity

Title

0 1
C    -4.0500558   -0.5771862    0.8136712
H    -5.0263804   -1.0082727    1.0024760
C    -3.9381552    0.6617804    0.2400876
H    -4.8252424    1.2338890   -0.0111295
C    -2.6768410    1.2433246    0.0057578
C    -1.4974121    0.5051527    0.2848253
C    -1.6508332   -0.7338728    0.9404026
H    -0.7713646   -1.2730967    1.2633753
C    -2.8898548   -1.2624035    1.1994307
H    -2.9683706   -2.2124563    1.7152676
C    -2.5773185    2.5963696   -0.4192930
H    -3.4870728    3.1412239   -0.6474055
C    -1.3741895    3.2147896   -0.4364030
H    -1.2997315    4.2742019   -0.6578144
C    -0.1719488    2.4994090   -0.1734588
C    -0.2043917    1.1018437    0.0192689
C     1.0513491    3.2042560   -0.0676222
H     1.0427344    4.2819499   -0.1896997
C     2.1942091    2.5487446    0.2579577
H     3.1168527    3.0912848    0.4334727
C     2.2216473    1.1336562    0.2934990
C     1.0486931    0.3945528    0.0302412
C     3.4483363    0.4614633    0.5573939
H     4.3095794    1.0606054    0.8334846
C     3.5427346   -0.8855926    0.4749463
H     4.4731467   -1.3939704    0.7038822
C     2.4490052   -1.6474447   -0.0196319
C     1.2150704   -1.0057258   -0.3013573
C     0.2531113   -1.7434440   -1.0216591
H    -0.6541356   -1.2535051   -1.3462847
C     0.4494193   -3.0628597   -1.3413779
H    -0.3083162   -3.5944309   -1.9054060
C     1.6251726   -3.7207967   -0.9552541
H     1.7670048   -4.7687404   -1.1927019
C     2.6109872   -3.0144177   -0.3183050
H     3.5525612   -3.4902813   -0.0646367
Bq        -0.9763114617    -0.3424037421     1.3849562678
Bq        -0.9801534431    -0.3178544247     1.4818199359
Bq        -0.9791306533     0.1913940524     1.4560334569
Bq        -0.9714466906     0.1422954176     1.2623061207
Bq        -0.9752886719     0.1668447350     1.3591697888
Bq        -0.9742658822     0.6760932120     1.3333833097
Bq        -0.9665819195     0.6269945773     1.1396559735
Bq        -0.9704239008     0.6515438947     1.2365196416
Bq        -0.9694011110     1.1607923717     1.2107331626
Bq        -0.9617171484     1.1116937370     1.0170058264
Bq        -0.9655591297     1.1362430544     1.1138694945
Bq        -0.9645363399     1.6454915314     1.0880830154
Bq        -0.9568523773     1.5963928967     0.8943556793
Bq        -0.9606943586     1.6209422141     0.9912193474
Bq        -0.9596715688     2.1301906911     0.9654328683
Bq        -0.9519876061     2.0810920564     0.7717055321
Bq        -0.9558295875     2.1056413738     0.8685692002
Bq        -0.9548067977     2.6148898508     0.8427827212
Bq        -0.9471228350     2.5657912161     0.6490553850
Bq        -0.9509648163     2.5903405335     0.7459190531
Bq        -0.9499420265     3.0995890105     0.7201325740
Bq        -0.9422580639     3.0504903758     0.5264052379
Bq        -0.9461000452     3.0750396931     0.6232689059
Bq        -0.9450772554     3.5842881702     0.5974824269
Bq        -0.9373932928     3.5351895355     0.4037550907
Bq        -0.9412352741     3.5597388528     0.5006187588
Bq        -0.9402124843     4.0689873299     0.4748322798
Bq        -0.9325285216     4.0198886952     0.2811049436
Bq        -0.9363705030     4.0444380125     0.3779686117
Bq        -0.9353477132     4.5536864896     0.3521821326
Bq        -0.9276637505     4.5045878549     0.1584547965
Bq        -0.9315057318     4.5291371722     0.2553184645
Bq        -0.4843882652    -0.2933051073     1.5984999233
Bq        -0.4767043026    -0.3424037421     1.4047725871
Bq        -0.4805462839    -0.3178544247     1.5016362552
Bq        -0.4795234941     0.1913940524     1.4758497762
Bq        -0.4718395315     0.1422954176     1.2821224400
Bq        -0.4756815128     0.1668447350     1.3789861081
Bq        -0.4746587230     0.6760932120     1.3531996290
Bq        -0.4669747603     0.6269945773     1.1594722929
Bq        -0.4708167417     0.6515438947     1.2563359609
Bq        -0.4697939519     1.1607923717     1.2305494819
Bq        -0.4621099892     1.1116937370     1.0368221457
Bq        -0.4659519705     1.1362430544     1.1336858138
Bq        -0.4649291807     1.6454915314     1.1078993348
Bq        -0.4572452181     1.5963928967     0.9141719986
Bq        -0.4610871994     1.6209422141     1.0110356667
Bq        -0.4600644096     2.1301906911     0.9852491876
Bq        -0.4523804470     2.0810920564     0.7915218515
Bq        -0.4562224283     2.1056413738     0.8883855195
Bq        -0.4551996385     2.6148898508     0.8625990405
Bq        -0.4475156758     2.5657912161     0.6688717043
Bq        -0.4513576572     2.5903405335     0.7657353724
Bq        -0.4503348674     3.0995890105     0.7399488934
Bq        -0.4426509047     3.0504903758     0.5462215572
Bq        -0.4464928861     3.0750396931     0.6430852253
Bq        -0.4454700963     3.5842881702     0.6172987462
Bq        -0.4377861336     3.5351895355     0.4235714100
Bq        -0.4416281149     3.5597388528     0.5204350781
Bq        -0.4406053251     4.0689873299     0.4946485991
Bq        -0.4329213625     4.0198886952     0.3009212629
Bq        -0.4367633438     4.0444380125     0.3977849310
Bq        -0.4357405540     4.5536864896     0.3719984520
Bq        -0.4280565914     4.5045878549     0.1782711158
Bq        -0.4318985727     4.5291371722     0.2751347839
Bq         0.0152188939    -0.2933051073     1.6183162426
Bq         0.0229028566    -0.3424037421     1.4245889064
Bq         0.0190608753    -0.3178544247     1.5214525745
Bq         0.0200836651     0.1913940524     1.4956660955
Bq         0.0277676277     0.1422954176     1.3019387593
Bq         0.0239256464     0.1668447350     1.3988024274
Bq         0.0249484362     0.6760932120     1.3730159484
Bq         0.0326323988     0.6269945773     1.1792886122
Bq         0.0287904175     0.6515438947     1.2761522803
Bq         0.0298132073     1.1607923717     1.2503658012
Bq         0.0374971700     1.1116937370     1.0566384650
Bq         0.0336551886     1.1362430544     1.1535021331
Bq         0.0346779784     1.6454915314     1.1277156541
Bq         0.0423619411     1.5963928967     0.9339883179
Bq         0.0385199597     1.6209422141     1.0308519860
Bq         0.0395427495     2.1301906911     1.0050655070
Bq         0.0472267122     2.0810920564     0.8113381708
Bq         0.0433847309     2.1056413738     0.9082018389
Bq         0.0444075207     2.6148898508     0.8824153598
Bq         0.0520914833     2.5657912161     0.6886880236
Bq         0.0482495020     2.5903405335     0.7855516917
Bq         0.0492722918     3.0995890105     0.7597652127
Bq         0.0569562544     3.0504903758     0.5660378765
Bq         0.0531142731     3.0750396931     0.6629015446
Bq         0.0541370629     3.5842881702     0.6371150655
Bq         0.0618210256     3.5351895355     0.4433877294
Bq         0.0579790442     3.5597388528     0.5402513975
Bq         0.0590018340     4.0689873299     0.5144649184
Bq         0.0666857967     4.0198886952     0.3207375822
Bq         0.0628438154     4.0444380125     0.4176012503
Bq         0.0638666052     4.5536864896     0.3918147713
Bq         0.0715505678     4.5045878549     0.1980874351
Bq         0.0677085865     4.5291371722     0.2949511032
Bq         0.5148260531    -0.2933051073     1.6381325619
Bq         0.5225100158    -0.3424037421     1.4444052258
Bq         0.5186680344    -0.3178544247     1.5412688939
Bq         0.5196908242     0.1913940524     1.5154824148
Bq         0.5273747869     0.1422954176     1.3217550786
Bq         0.5235328055     0.1668447350     1.4186187467
Bq         0.5245555953     0.6760932120     1.3928322677
Bq         0.5322395580     0.6269945773     1.1991049315
Bq         0.5283975767     0.6515438947     1.2959685996
Bq         0.5294203665     1.1607923717     1.2701821205
Bq         0.5371043291     1.1116937370     1.0764547844
Bq         0.5332623478     1.1362430544     1.1733184525
Bq         0.5342851376     1.6454915314     1.1475319734
Bq         0.5419691002     1.5963928967     0.9538046372
Bq         0.5381271189     1.6209422141     1.0506683053
Bq         0.5391499087     2.1301906911     1.0248818263
Bq         0.5468338714     2.0810920564     0.8311544901
Bq         0.5429918900     2.1056413738     0.9280181582
Bq         0.5440146798     2.6148898508     0.9022316791
Bq         0.5516986425     2.5657912161     0.7085043430
Bq         0.5478566612     2.5903405335     0.8053680110
Bq         0.5488794509     3.0995890105     0.7795815320
Bq         0.5565634136     3.0504903758     0.5858541958
Bq         0.5527214323     3.0750396931     0.6827178639
Bq         0.5537442221     3.5842881702     0.6569313849
Bq         0.5614281847     3.5351895355     0.4632040487
Bq         0.5575862034     3.5597388528     0.5600677168
Bq         0.5586089932     4.0689873299     0.5342812377
Bq         0.5662929559     4.0198886952     0.3405539015
Bq         0.5624509745     4.0444380125     0.4374175696
Bq         0.5634737643     4.5536864896     0.4116310906
Bq         0.5711577270     4.5045878549     0.2179037544
Bq         0.5673157456     4.5291371722     0.3147674225
Bq         1.0144332123    -0.2933051073     1.6579488813
Bq         1.0221171749    -0.3424037421     1.4642215451
Bq         1.0182751936    -0.3178544247     1.5610852132
Bq         1.0192979834     0.1913940524     1.5352987341
Bq         1.0269819460     0.1422954176     1.3415713980
Bq         1.0231399647     0.1668447350     1.4384350660
Bq         1.0241627545     0.6760932120     1.4126485870
Bq         1.0318467172     0.6269945773     1.2189212508
Bq         1.0280047358     0.6515438947     1.3157849189
Bq         1.0290275256     1.1607923717     1.2899984399
Bq         1.0367114883     1.1116937370     1.0962711037
Bq         1.0328695070     1.1362430544     1.1931347718
Bq         1.0338922967     1.6454915314     1.1673482927
Bq         1.0415762594     1.5963928967     0.9736209565
Bq         1.0377342781     1.6209422141     1.0704846246
Bq         1.0387570679     2.1301906911     1.0446981456
Bq         1.0464410305     2.0810920564     0.8509708094
Bq         1.0425990492     2.1056413738     0.9478344775
Bq         1.0436218390     2.6148898508     0.9220479985
Bq         1.0513058016     2.5657912161     0.7283206623
Bq         1.0474638203     2.5903405335     0.8251843304
Bq         1.0484866101     3.0995890105     0.7993978513
Bq         1.0561705728     3.0504903758     0.6056705151
Bq         1.0523285914     3.0750396931     0.7025341832
Bq         1.0533513812     3.5842881702     0.6767477042
Bq         1.0610353439     3.5351895355     0.4830203680
Bq         1.0571933626     3.5597388528     0.5798840361
Bq         1.0582161524     4.0689873299     0.5540975570
Bq         1.0659001150     4.0198886952     0.3603702209
Bq         1.0620581337     4.0444380125     0.4572338890
Bq         1.0630809235     4.5536864896     0.4314474099
Bq         1.0707648861     4.5045878549     0.2377200737
Bq         1.0669229048     4.5291371722     0.3345837418

1
2
3
4
5
6
7
8
9
10
11
12
13
14
15
16
17
18
19
20
21
22
23
24
25
26
27
28
29
30
31
32
33
34
35
36
37
38
39
40
41
42
43
44
45
46
47
48
49
50
51
52
53
54
55
56
57
58
59
60
61
62
63
64
65
66
67
68
69
70
71
72
73
74
75
76
77
78
79
80
81
82
83
84
85
86
87
88
89
90
91
92
93
94
95
96
97
98
99
100
101
102
103
104
105
106
107
108
109
110
111
112
113
114
115
116
117
118
119
120
121
122
123
124
125
126
127
128
129
130
131
132
133
134
135
136
137
138
139
140
141
142
143
144
145
146
147
148
149
150
151
152
153
154
155
156
157
158
159
160
161
162
163
164
165
166
167
168
169
170
171
172
173
174
175
176
177
178
179
180
181
182
183
184
185
186
187
188
189
190
191
192
193
194
195
196
197
198
199
200

