%nproc=8
%mem=1000MB
# rb3lyp/6-311+g** NMR geom=connectivity

Title

0 1
C    -4.0500558   -0.5771862    0.8136712
H    -5.0263804   -1.0082727    1.0024760
C    -3.9381552    0.6617804    0.2400876
H    -4.8252424    1.2338890   -0.0111295
C    -2.6768410    1.2433246    0.0057578
C    -1.4974121    0.5051527    0.2848253
C    -1.6508332   -0.7338728    0.9404026
H    -0.7713646   -1.2730967    1.2633753
C    -2.8898548   -1.2624035    1.1994307
H    -2.9683706   -2.2124563    1.7152676
C    -2.5773185    2.5963696   -0.4192930
H    -3.4870728    3.1412239   -0.6474055
C    -1.3741895    3.2147896   -0.4364030
H    -1.2997315    4.2742019   -0.6578144
C    -0.1719488    2.4994090   -0.1734588
C    -0.2043917    1.1018437    0.0192689
C     1.0513491    3.2042560   -0.0676222
H     1.0427344    4.2819499   -0.1896997
C     2.1942091    2.5487446    0.2579577
H     3.1168527    3.0912848    0.4334727
C     2.2216473    1.1336562    0.2934990
C     1.0486931    0.3945528    0.0302412
C     3.4483363    0.4614633    0.5573939
H     4.3095794    1.0606054    0.8334846
C     3.5427346   -0.8855926    0.4749463
H     4.4731467   -1.3939704    0.7038822
C     2.4490052   -1.6474447   -0.0196319
C     1.2150704   -1.0057258   -0.3013573
C     0.2531113   -1.7434440   -1.0216591
H    -0.6541356   -1.2535051   -1.3462847
C     0.4494193   -3.0628597   -1.3413779
H    -0.3083162   -3.5944309   -1.9054060
C     1.6251726   -3.7207967   -0.9552541
H     1.7670048   -4.7687404   -1.1927019
C     2.6109872   -3.0144177   -0.3183050
H     3.5525612   -3.4902813   -0.0646367
Bq        -1.4170169333     1.8601482000    -0.1198838000
Bq        -3.9816383794    -0.2933051073     1.4597856881
Bq        -3.9739544167    -0.3424037421     1.2660583519
Bq        -3.9777963981    -0.3178544247     1.3629220200
Bq        -3.9767736083     0.1913940524     1.3371355409
Bq        -3.9690896456     0.1422954176     1.1434082048
Bq        -3.9729316269     0.1668447350     1.2402718728
Bq        -3.9719088371     0.6760932120     1.2144853938
Bq        -3.9642248745     0.6269945773     1.0207580576
Bq        -3.9680668558     0.6515438947     1.1176217257
Bq        -3.9670440660     1.1607923717     1.0918352467
Bq        -3.9593601034     1.1116937370     0.8981079105
Bq        -3.9632020847     1.1362430544     0.9949715786
Bq        -3.9621792949     1.6454915314     0.9691850995
Bq        -3.9544953322     1.5963928967     0.7754577633
Bq        -3.9583373136     1.6209422141     0.8723214314
Bq        -3.9573145238     2.1301906911     0.8465349524
Bq        -3.9496305611     2.0810920564     0.6528076162
Bq        -3.9534725424     2.1056413738     0.7496712843
Bq        -3.9524497527     2.6148898508     0.7238848053
Bq        -3.9447657900     2.5657912161     0.5301574691
Bq        -3.9486077713     2.5903405335     0.6270211372
Bq        -3.9475849815     3.0995890105     0.6012346581
Bq        -3.9399010189     3.0504903758     0.4075073219
Bq        -3.9437430002     3.0750396931     0.5043709900
Bq        -3.9427202104     3.5842881702     0.4785845110
Bq        -3.9350362478     3.5351895355     0.2848571748
Bq        -3.9388782291     3.5597388528     0.3817208429
Bq        -3.9378554393     4.0689873299     0.3559343638
Bq        -3.9301714766     4.0198886952     0.1622070277
Bq        -3.9340134580     4.0444380125     0.2590706958
Bq        -3.9329906682     4.5536864896     0.2332842167
Bq        -3.9253067055     4.5045878549     0.0395568805
Bq        -3.9291486868     4.5291371722     0.1364205486
Bq        -3.4820312202    -0.2933051073     1.4796020074
Bq        -3.4743472576    -0.3424037421     1.2858746712
Bq        -3.4781892389    -0.3178544247     1.3827383393
Bq        -3.4771664491     0.1913940524     1.3569518603
Bq        -3.4694824864     0.1422954176     1.1632245241
Bq        -3.4733244678     0.1668447350     1.2600881922
Bq        -3.4723016780     0.6760932120     1.2343017131
Bq        -3.4646177153     0.6269945773     1.0405743769
Bq        -3.4684596966     0.6515438947     1.1374380450
Bq        -3.4674369069     1.1607923717     1.1116515660
Bq        -3.4597529442     1.1116937370     0.9179242298
Bq        -3.4635949255     1.1362430544     1.0147878979
Bq        -3.4625721357     1.6454915314     0.9890014188
Bq        -3.4548881731     1.5963928967     0.7952740827
Bq        -3.4587301544     1.6209422141     0.8921377508
Bq        -3.4577073646     2.1301906911     0.8663512717
Bq        -3.4500234020     2.0810920564     0.6726239355
Bq        -3.4538653833     2.1056413738     0.7694876036
Bq        -3.4528425935     2.6148898508     0.7437011246
Bq        -3.4451586308     2.5657912161     0.5499737884
Bq        -3.4490006122     2.5903405335     0.6468374565
Bq        -3.4479778224     3.0995890105     0.6210509774
Bq        -3.4402938597     3.0504903758     0.4273236413
Bq        -3.4441358410     3.0750396931     0.5241873093
Bq        -3.4431130512     3.5842881702     0.4984008303
Bq        -3.4354290886     3.5351895355     0.3046734941
Bq        -3.4392710699     3.5597388528     0.4015371622
Bq        -3.4382482801     4.0689873299     0.3757506832
Bq        -3.4305643175     4.0198886952     0.1820233470
Bq        -3.4344062988     4.0444380125     0.2788870151
Bq        -3.4333835090     4.5536864896     0.2531005360
Bq        -3.4256995463     4.5045878549     0.0593731999
Bq        -3.4295415277     4.5291371722     0.1562368679
Bq        -2.9824240611    -0.2933051073     1.4994183267
Bq        -2.9747400984    -0.3424037421     1.3056909905
Bq        -2.9785820797    -0.3178544247     1.4025546586
Bq        -2.9775592899     0.1913940524     1.3767681796
Bq        -2.9698753273     0.1422954176     1.1830408434
Bq        -2.9737173086     0.1668447350     1.2799045115
Bq        -2.9726945188     0.6760932120     1.2541180324
Bq        -2.9650105562     0.6269945773     1.0603906963
Bq        -2.9688525375     0.6515438947     1.1572543643
Bq        -2.9678297477     1.1607923717     1.1314678853
Bq        -2.9601457850     1.1116937370     0.9377405491
Bq        -2.9639877664     1.1362430544     1.0346042172
Bq        -2.9629649766     1.6454915314     1.0088177382
Bq        -2.9552810139     1.5963928967     0.8150904020
Bq        -2.9591229952     1.6209422141     0.9119540701
Bq        -2.9581002054     2.1301906911     0.8861675910
Bq        -2.9504162428     2.0810920564     0.6924402548
Bq        -2.9542582241     2.1056413738     0.7893039229
Bq        -2.9532354343     2.6148898508     0.7635174439
Bq        -2.9455514717     2.5657912161     0.5697901077
Bq        -2.9493934530     2.5903405335     0.6666537758
Bq        -2.9483706632     3.0995890105     0.6408672968
Bq        -2.9406867005     3.0504903758     0.4471399606
Bq        -2.9445286819     3.0750396931     0.5440036287
Bq        -2.9435058921     3.5842881702     0.5182171496
Bq        -2.9358219294     3.5351895355     0.3244898134
Bq        -2.9396639108     3.5597388528     0.4213534815
Bq        -2.9386411210     4.0689873299     0.3955670025
Bq        -2.9309571583     4.0198886952     0.2018396663
Bq        -2.9347991396     4.0444380125     0.2987033344
Bq        -2.9337763498     4.5536864896     0.2729168554
Bq        -2.9260923872     4.5045878549     0.0791895192
Bq        -2.9299343685     4.5291371722     0.1760531873
Bq        -2.4828169019    -0.2933051073     1.5192346460
Bq        -2.4751329392    -0.3424037421     1.3255073098
Bq        -2.4789749206    -0.3178544247     1.4223709779
Bq        -2.4779521308     0.1913940524     1.3965844989
Bq        -2.4702681681     0.1422954176     1.2028571627
Bq        -2.4741101494     0.1668447350     1.2997208308
Bq        -2.4730873596     0.6760932120     1.2739343518
Bq        -2.4654033970     0.6269945773     1.0802070156
Bq        -2.4692453783     0.6515438947     1.1770706837
Bq        -2.4682225885     1.1607923717     1.1512842046
Bq        -2.4605386259     1.1116937370     0.9575568684
Bq        -2.4643806072     1.1362430544     1.0544205365
Bq        -2.4633578174     1.6454915314     1.0286340575
Bq        -2.4556738547     1.5963928967     0.8349067213
Bq        -2.4595158361     1.6209422141     0.9317703894
Bq        -2.4584930463     2.1301906911     0.9059839103
Bq        -2.4508090836     2.0810920564     0.7122565742
Bq        -2.4546510650     2.1056413738     0.8091202423
Bq        -2.4536282752     2.6148898508     0.7833337632
Bq        -2.4459443125     2.5657912161     0.5896064270
Bq        -2.4497862938     2.5903405335     0.6864700951
Bq        -2.4487635040     3.0995890105     0.6606836161
Bq        -2.4410795414     3.0504903758     0.4669562799
Bq        -2.4449215227     3.0750396931     0.5638199480
Bq        -2.4438987329     3.5842881702     0.5380334689
Bq        -2.4362147703     3.5351895355     0.3443061328
Bq        -2.4400567516     3.5597388528     0.4411698009
Bq        -2.4390339618     4.0689873299     0.4153833218
Bq        -2.4313499991     4.0198886952     0.2216559856
Bq        -2.4351919805     4.0444380125     0.3185196537
Bq        -2.4341691907     4.5536864896     0.2927331747
Bq        -2.4264852280     4.5045878549     0.0990058385
Bq        -2.4303272093     4.5291371722     0.1958695066
Bq        -1.9832097427    -0.2933051073     1.5390509653
Bq        -1.9755257801    -0.3424037421     1.3453236292
Bq        -1.9793677614    -0.3178544247     1.4421872973
Bq        -1.9783449716     0.1913940524     1.4164008182
Bq        -1.9706610089     0.1422954176     1.2226734820
Bq        -1.9745029903     0.1668447350     1.3195371501
Bq        -1.9734802005     0.6760932120     1.2937506711
Bq        -1.9657962378     0.6269945773     1.1000233349
Bq        -1.9696382192     0.6515438947     1.1968870030
Bq        -1.9686154294     1.1607923717     1.1711005239
Bq        -1.9609314667     1.1116937370     0.9773731878
Bq        -1.9647734480     1.1362430544     1.0742368559
Bq        -1.9637506582     1.6454915314     1.0484503768
Bq        -1.9560666956     1.5963928967     0.8547230406
Bq        -1.9599086769     1.6209422141     0.9515867087
Bq        -1.9588858871     2.1301906911     0.9258002297
Bq        -1.9512019245     2.0810920564     0.7320728935
Bq        -1.9550439058     2.1056413738     0.8289365616
Bq        -1.9540211160     2.6148898508     0.8031500825
Bq        -1.9463371533     2.5657912161     0.6094227464
Bq        -1.9501791347     2.5903405335     0.7062864144
Bq        -1.9491563449     3.0995890105     0.6804999354
Bq        -1.9414723822     3.0504903758     0.4867725992
Bq        -1.9453143635     3.0750396931     0.5836362673
Bq        -1.9442915738     3.5842881702     0.5578497883
Bq        -1.9366076111     3.5351895355     0.3641224521
Bq        -1.9404495924     3.5597388528     0.4609861202
Bq        -1.9394268026     4.0689873299     0.4351996411
Bq        -1.9317428400     4.0198886952     0.2414723049
Bq        -1.9355848213     4.0444380125     0.3383359730
Bq        -1.9345620315     4.5536864896     0.3125494940
Bq        -1.9268780688     4.5045878549     0.1188221578
Bq        -1.9307200502     4.5291371722     0.2156858259
Bq        -1.4836025836    -0.2933051073     1.5588672847
Bq        -1.4759186209    -0.3424037421     1.3651399485
Bq        -1.4797606022    -0.3178544247     1.4620036166
Bq        -1.4787378124     0.1913940524     1.4362171375
Bq        -1.4710538498     0.1422954176     1.2424898014
Bq        -1.4748958311     0.1668447350     1.3393534694
Bq        -1.4738730413     0.6760932120     1.3135669904
Bq        -1.4661890787     0.6269945773     1.1198396542
Bq        -1.4700310600     0.6515438947     1.2167033223
Bq        -1.4690082702     1.1607923717     1.1909168433
Bq        -1.4613243075     1.1116937370     0.9971895071
Bq        -1.4651662889     1.1362430544     1.0940531752
Bq        -1.4641434991     1.6454915314     1.0682666961
Bq        -1.4564595364     1.5963928967     0.8745393599
Bq        -1.4603015177     1.6209422141     0.9714030280
Bq        -1.4592787280     2.1301906911     0.9456165490
Bq        -1.4515947653     2.0810920564     0.7518892128
Bq        -1.4554367466     2.1056413738     0.8487528809
Bq        -1.4544139568     2.6148898508     0.8229664019
Bq        -1.4467299942     2.5657912161     0.6292390657
Bq        -1.4505719755     2.5903405335     0.7261027338
Bq        -1.4495491857     3.0995890105     0.7003162547
Bq        -1.4418652231     3.0504903758     0.5065889185
Bq        -1.4457072044     3.0750396931     0.6034525866
Bq        -1.4446844146     3.5842881702     0.5776661076
Bq        -1.4370004519     3.5351895355     0.3839387714
Bq        -1.4408424333     3.5597388528     0.4808024395
Bq        -1.4398196435     4.0689873299     0.4550159604
Bq        -1.4321356808     4.0198886952     0.2612886243
Bq        -1.4359776621     4.0444380125     0.3581522924
Bq        -1.4349548723     4.5536864896     0.3323658133
Bq        -1.4272709097     4.5045878549     0.1386384771
Bq        -1.4311128910     4.5291371722     0.2355021452
Bq        -0.9839954244    -0.2933051073     1.5786836040

1
2
3
4
5
6
7
8
9
10
11
12
13
14
15
16
17
18
19
20
21
22
23
24
25
26
27
28
29
30
31
32
33
34
35
36
37
38
39
40
41
42
43
44
45
46
47
48
49
50
51
52
53
54
55
56
57
58
59
60
61
62
63
64
65
66
67
68
69
70
71
72
73
74
75
76
77
78
79
80
81
82
83
84
85
86
87
88
89
90
91
92
93
94
95
96
97
98
99
100
101
102
103
104
105
106
107
108
109
110
111
112
113
114
115
116
117
118
119
120
121
122
123
124
125
126
127
128
129
130
131
132
133
134
135
136
137
138
139
140
141
142
143
144
145
146
147
148
149
150
151
152
153
154
155
156
157
158
159
160
161
162
163
164
165
166
167
168
169
170
171
172
173
174
175
176
177
178
179
180
181
182
183
184
185
186
187
188
189
190
191
192
193
194
195
196
197
198
199
200
201
202
203
204
205
206
207
208
209
210
211
212
213
214
215
216
217
218
219
220
221
222
223
224
225
226
227
228
229
230
231
232
233
234
235
236

