%nproc=8
%mem=1000MB
# rb3lyp/6-311+g** NMR geom=connectivity

Title

0 1
C    -4.0500558   -0.5771862    0.8136712
H    -5.0263804   -1.0082727    1.0024760
C    -3.9381552    0.6617804    0.2400876
H    -4.8252424    1.2338890   -0.0111295
C    -2.6768410    1.2433246    0.0057578
C    -1.4974121    0.5051527    0.2848253
C    -1.6508332   -0.7338728    0.9404026
H    -0.7713646   -1.2730967    1.2633753
C    -2.8898548   -1.2624035    1.1994307
H    -2.9683706   -2.2124563    1.7152676
C    -2.5773185    2.5963696   -0.4192930
H    -3.4870728    3.1412239   -0.6474055
C    -1.3741895    3.2147896   -0.4364030
H    -1.2997315    4.2742019   -0.6578144
C    -0.1719488    2.4994090   -0.1734588
C    -0.2043917    1.1018437    0.0192689
C     1.0513491    3.2042560   -0.0676222
H     1.0427344    4.2819499   -0.1896997
C     2.1942091    2.5487446    0.2579577
H     3.1168527    3.0912848    0.4334727
C     2.2216473    1.1336562    0.2934990
C     1.0486931    0.3945528    0.0302412
C     3.4483363    0.4614633    0.5573939
H     4.3095794    1.0606054    0.8334846
C     3.5427346   -0.8855926    0.4749463
H     4.4731467   -1.3939704    0.7038822
C     2.4490052   -1.6474447   -0.0196319
C     1.2150704   -1.0057258   -0.3013573
C     0.2531113   -1.7434440   -1.0216591
H    -0.6541356   -1.2535051   -1.3462847
C     0.4494193   -3.0628597   -1.3413779
H    -0.3083162   -3.5944309   -1.9054060
C     1.6251726   -3.7207967   -0.9552541
H     1.7670048   -4.7687404   -1.1927019
C     2.6109872   -3.0144177   -0.3183050
H     3.5525612   -3.4902813   -0.0646367
Bq         1.8054446601    -5.0151468611    -0.2687793509
Bq         1.7655828963    -5.0417625122    -0.1810146262
Bq         1.6706887657    -4.5864132498     0.0279163508
Bq         1.7504122933    -4.5331819475    -0.1476130986
Bq         1.7105505295    -4.5597975986    -0.0598483739
Bq         1.6156563988    -4.1044483362     0.1490826031
Bq         1.6953799264    -4.0512170340    -0.0264468463
Bq         1.6555181626    -4.0778326851     0.0613178784
Bq         1.5606240320    -3.6224834226     0.2702488554
Bq         1.6403475595    -3.5692521204     0.0947194060
Bq         1.6004857957    -3.5958677715     0.1824841307
Bq         1.5055916651    -3.1405185091     0.3914151077
Bq         1.5853151927    -3.0872872069     0.2158856583
Bq         1.5454534289    -3.1139028580     0.3036503830
Bq         1.4505592982    -2.6585535955     0.5125813600
Bq         1.5302828258    -2.6053222933     0.3370519106
Bq         1.4904210620    -2.6319379444     0.4248166353
Bq         1.3955269314    -2.1765886819     0.6337476123
Bq         1.4752504590    -2.1233573797     0.4582181628
Bq         1.4353886952    -2.1499730308     0.5459828876
Bq         1.3404945645    -1.6946237684     0.7549138646
Bq         1.4202180921    -1.6413924662     0.5793844151
Bq         1.3803563283    -1.6680081173     0.6671491398
Bq         1.2854621977    -1.2126588548     0.8760801169
Bq         1.3651857252    -1.1594275526     0.7005506674
Bq         1.3253239614    -1.1860432037     0.7883153921
Bq         1.2304298308    -0.7306939413     0.9972463691
Bq         1.3101533584    -0.6774626391     0.8217169197
Bq         1.2702915946    -0.7040782902     0.9094816444
Bq         1.1753974639    -0.2487290277     1.1184126214
Bq         1.2551209915    -0.1954977255     0.9428831720
Bq         1.2152592277    -0.2221133766     1.0306478967
Bq         2.1809654991    -5.0683781633     0.1135170367
Bq         2.2606890267    -5.0151468611    -0.0620124128
Bq         2.2208272629    -5.0417625122     0.0257523120
Bq         2.1259331322    -4.5864132498     0.2346832890
Bq         2.2056566598    -4.5331819475     0.0591538395
Bq         2.1657948960    -4.5597975986     0.1469185643
Bq         2.0709007654    -4.1044483362     0.3558495413
Bq         2.1506242930    -4.0512170340     0.1803200918
Bq         2.1107625292    -4.0778326851     0.2680848165
Bq         2.0158683985    -3.6224834226     0.4770157935
Bq         2.0955919261    -3.5692521204     0.3014863441
Bq         2.0557301623    -3.5958677715     0.3892510688
Bq         1.9608360317    -3.1405185091     0.5981820458
Bq         2.0405595592    -3.0872872069     0.4226525964
Bq         2.0006977955    -3.1139028580     0.5104173211
Bq         1.9058036648    -2.6585535955     0.7193482981
Bq         1.9855271924    -2.6053222933     0.5438188487
Bq         1.9456654286    -2.6319379444     0.6315835734
Bq         1.8507712979    -2.1765886819     0.8405145504
Bq         1.9304948255    -2.1233573797     0.6649851010
Bq         1.8906330617    -2.1499730308     0.7527498257
Bq         1.7957389311    -1.6946237684     0.9616808027
Bq         1.8754624587    -1.6413924662     0.7861513533
Bq         1.8356006949    -1.6680081173     0.8739160780
Bq         1.7407065642    -1.2126588548     1.0828470550
Bq         1.8204300918    -1.1594275526     0.9073176056
Bq         1.7805683280    -1.1860432037     0.9950823303
Bq         1.6856741974    -0.7306939413     1.2040133073
Bq         1.7653977249    -0.6774626391     1.0284838579
Bq         1.7255359612    -0.7040782902     1.1162485826
Bq         1.6306418305    -0.2487290277     1.3251795596
Bq         1.7103653581    -0.1954977255     1.1496501101
Bq         1.6705035943    -0.2221133766     1.2374148349
Bq         2.6362098657    -5.0683781633     0.3202839748
Bq         2.7159333933    -5.0151468611     0.1447545254
Bq         2.6760716295    -5.0417625122     0.2325192501
Bq         2.5811774988    -4.5864132498     0.4414502271
Bq         2.6609010264    -4.5331819475     0.2659207777
Bq         2.6210392626    -4.5597975986     0.3536855024
Bq         2.5261451320    -4.1044483362     0.5626164794
Bq         2.6058686595    -4.0512170340     0.3870870300
Bq         2.5660068957    -4.0778326851     0.4748517547
Bq         2.4711127651    -3.6224834226     0.6837827317
Bq         2.5508362927    -3.5692521204     0.5082532823
Bq         2.5109745289    -3.5958677715     0.5960180070
Bq         2.4160803982    -3.1405185091     0.8049489840
Bq         2.4958039258    -3.0872872069     0.6294195345
Bq         2.4559421620    -3.1139028580     0.7171842593
Bq         2.3610480314    -2.6585535955     0.9261152363
Bq         2.4407715589    -2.6053222933     0.7505857868
Bq         2.4009097952    -2.6319379444     0.8383505116
Bq         2.3060156645    -2.1765886819     1.0472814886
Bq         2.3857391921    -2.1233573797     0.8717520391
Bq         2.3458774283    -2.1499730308     0.9595167638
Bq         2.2509832977    -1.6946237684     1.1684477408
Bq         2.3307068252    -1.6413924662     0.9929182914
Bq         2.2908450614    -1.6680081173     1.0806830161
Bq         2.1959509308    -1.2126588548     1.2896139931
Bq         2.2756744584    -1.1594275526     1.1140845437
Bq         2.2358126946    -1.1860432037     1.2018492684
Bq         2.1409185639    -0.7306939413     1.4107802454
Bq         2.2206420915    -0.6774626391     1.2352507960
Bq         2.1807803277    -0.7040782902     1.3230155207
Bq         2.0858861971    -0.2487290277     1.5319464977
Bq         2.1656097246    -0.1954977255     1.3564170483
Bq         2.1257479609    -0.2221133766     1.4441817730
Bq         3.0914542322    -5.0683781633     0.5270509130
Bq         3.1711777598    -5.0151468611     0.3515214635
Bq         3.1313159960    -5.0417625122     0.4392861882
Bq         3.0364218654    -4.5864132498     0.6482171652
Bq         3.1161453930    -4.5331819475     0.4726877158
Bq         3.0762836292    -4.5597975986     0.5604524405
Bq         2.9813894985    -4.1044483362     0.7693834175
Bq         3.0611130261    -4.0512170340     0.5938539681
Bq         3.0212512623    -4.0778326851     0.6816186928
Bq         2.9263571317    -3.6224834226     0.8905496698
Bq         3.0060806592    -3.5692521204     0.7150202204
Bq         2.9662188954    -3.5958677715     0.8027849451
Bq         2.8713247648    -3.1405185091     1.0117159221
Bq         2.9510482924    -3.0872872069     0.8361864727
Bq         2.9111865286    -3.1139028580     0.9239511974
Bq         2.8162923979    -2.6585535955     1.1328821744
Bq         2.8960159255    -2.6053222933     0.9573527250
Bq         2.8561541617    -2.6319379444     1.0451174497
Bq         2.7612600311    -2.1765886819     1.2540484267
Bq         2.8409835587    -2.1233573797     1.0785189773
Bq         2.8011217949    -2.1499730308     1.1662837020
Bq         2.7062276642    -1.6946237684     1.3752146790
Bq         2.7859511918    -1.6413924662     1.1996852296
Bq         2.7460894280    -1.6680081173     1.2874499543
Bq         2.6511952974    -1.2126588548     1.4963809313
Bq         2.7309188249    -1.1594275526     1.3208514819
Bq         2.6910570611    -1.1860432037     1.4086162066
Bq         2.5961629305    -0.7306939413     1.6175471836
Bq         2.6758864581    -0.6774626391     1.4420177341
Bq         2.6360246943    -0.7040782902     1.5297824589
Bq         2.5411305636    -0.2487290277     1.7387134359
Bq         2.6208540912    -0.1954977255     1.5631839864
Bq         2.5809923274    -0.2221133766     1.6509487111
Bq         3.5466985988    -5.0683781633     0.7338178511
Bq         3.6264221264    -5.0151468611     0.5582884017
Bq         3.5865603626    -5.0417625122     0.6460531264
Bq         3.4916662320    -4.5864132498     0.8549841034
Bq         3.5713897595    -4.5331819475     0.6794546540
Bq         3.5315279957    -4.5597975986     0.7672193787
Bq         3.4366338651    -4.1044483362     0.9761503557
Bq         3.5163573927    -4.0512170340     0.8006209063
Bq         3.4764956289    -4.0778326851     0.8883856310
Bq         3.3816014982    -3.6224834226     1.0973166080
Bq         3.4613250258    -3.5692521204     0.9217871585
Bq         3.4214632620    -3.5958677715     1.0095518833
Bq         3.3265691314    -3.1405185091     1.2184828603
Bq         3.4062926589    -3.0872872069     1.0429534108
Bq         3.3664308952    -3.1139028580     1.1307181355
Bq         3.2715367645    -2.6585535955     1.3396491125
Bq         3.3512602921    -2.6053222933     1.1641196631
Bq         3.3113985283    -2.6319379444     1.2518843878
Bq         3.2165043976    -2.1765886819     1.4608153648
Bq         3.2962279252    -2.1233573797     1.2852859154
Bq         3.2563661614    -2.1499730308     1.3730506401
Bq         3.1614720308    -1.6946237684     1.5819816171
Bq         3.2411955584    -1.6413924662     1.4064521677
Bq         3.2013337946    -1.6680081173     1.4942168924
Bq         3.1064396639    -1.2126588548     1.7031478694
Bq         3.1861631915    -1.1594275526     1.5276184200
Bq         3.1463014277    -1.1860432037     1.6153831447
Bq         3.0514072971    -0.7306939413     1.8243141217
Bq         3.1311308246    -0.6774626391     1.6487846723
Bq         3.0912690609    -0.7040782902     1.7365493970
Bq         2.9963749302    -0.2487290277     1.9454803740
Bq         3.0760984578    -0.1954977255     1.7699509246
Bq         3.0362366940    -0.2221133766     1.8577156493

1
2
3
4
5
6
7
8
9
10
11
12
13
14
15
16
17
18
19
20
21
22
23
24
25
26
27
28
29
30
31
32
33
34
35
36
37
38
39
40
41
42
43
44
45
46
47
48
49
50
51
52
53
54
55
56
57
58
59
60
61
62
63
64
65
66
67
68
69
70
71
72
73
74
75
76
77
78
79
80
81
82
83
84
85
86
87
88
89
90
91
92
93
94
95
96
97
98
99
100
101
102
103
104
105
106
107
108
109
110
111
112
113
114
115
116
117
118
119
120
121
122
123
124
125
126
127
128
129
130
131
132
133
134
135
136
137
138
139
140
141
142
143
144
145
146
147
148
149
150
151
152
153
154
155
156
157
158
159
160
161
162
163
164
165
166
167
168
169
170
171
172
173
174
175
176
177
178
179
180
181
182
183
184
185
186
187
188
189
190
191
192
193
194
195
196
197
198
199
200

