%nproc=8
%mem=1000MB
# rb3lyp/6-311+g** NMR geom=connectivity

Title

0 1
C    -4.0500558   -0.5771862    0.8136712
H    -5.0263804   -1.0082727    1.0024760
C    -3.9381552    0.6617804    0.2400876
H    -4.8252424    1.2338890   -0.0111295
C    -2.6768410    1.2433246    0.0057578
C    -1.4974121    0.5051527    0.2848253
C    -1.6508332   -0.7338728    0.9404026
H    -0.7713646   -1.2730967    1.2633753
C    -2.8898548   -1.2624035    1.1994307
H    -2.9683706   -2.2124563    1.7152676
C    -2.5773185    2.5963696   -0.4192930
H    -3.4870728    3.1412239   -0.6474055
C    -1.3741895    3.2147896   -0.4364030
H    -1.2997315    4.2742019   -0.6578144
C    -0.1719488    2.4994090   -0.1734588
C    -0.2043917    1.1018437    0.0192689
C     1.0513491    3.2042560   -0.0676222
H     1.0427344    4.2819499   -0.1896997
C     2.1942091    2.5487446    0.2579577
H     3.1168527    3.0912848    0.4334727
C     2.2216473    1.1336562    0.2934990
C     1.0486931    0.3945528    0.0302412
C     3.4483363    0.4614633    0.5573939
H     4.3095794    1.0606054    0.8334846
C     3.5427346   -0.8855926    0.4749463
H     4.4731467   -1.3939704    0.7038822
C     2.4490052   -1.6474447   -0.0196319
C     1.2150704   -1.0057258   -0.3013573
C     0.2531113   -1.7434440   -1.0216591
H    -0.6541356   -1.2535051   -1.3462847
C     0.4494193   -3.0628597   -1.3413779
H    -0.3083162   -3.5944309   -1.9054060
C     1.6251726   -3.7207967   -0.9552541
H     1.7670048   -4.7687404   -1.1927019
C     2.6109872   -3.0144177   -0.3183050
H     3.5525612   -3.4902813   -0.0646367
Bq         1.0232596833     1.8137437167     0.0599809667
Bq        -1.6129062924    -0.6341018169     0.8074307588
Bq        -1.6129062924    -0.6341018169     0.8074307588
Bq        -1.6093456227    -0.1347057400     0.7831227350
Bq        -1.6093456227    -0.1347057400     0.7831227350
Bq        -1.6057849530     0.3646903368     0.7588147112
Bq        -1.6057849530     0.3646903368     0.7588147112
Bq        -1.6022242833     0.8640864137     0.7345066873
Bq        -1.6022242833     0.8640864137     0.7345066873
Bq        -1.5986636136     1.3634824906     0.7101986635
Bq        -1.5986636136     1.3634824906     0.7101986635
Bq        -1.5951029439     1.8628785675     0.6858906397
Bq        -1.5951029439     1.8628785675     0.6858906397
Bq        -1.5915422742     2.3622746444     0.6615826158
Bq        -1.5915422742     2.3622746444     0.6615826158
Bq        -1.5879816045     2.8616707213     0.6372745920
Bq        -1.5879816045     2.8616707213     0.6372745920
Bq        -1.5844209348     3.3610667981     0.6129665682
Bq        -1.5844209348     3.3610667981     0.6129665682
Bq        -1.5808602651     3.8604628750     0.5886585443
Bq        -1.5808602651     3.8604628750     0.5886585443
Bq        -1.5772995954     4.3598589519     0.5643505205
Bq        -1.5772995954     4.3598589519     0.5643505205
Bq        -1.1181856731    -0.6341018169     0.8798980534
Bq        -1.1181856731    -0.6341018169     0.8798980534
Bq        -1.1146250034    -0.1347057400     0.8555900296
Bq        -1.1146250034    -0.1347057400     0.8555900296
Bq        -1.1110643337     0.3646903368     0.8312820057
Bq        -1.1110643337     0.3646903368     0.8312820057
Bq        -1.1075036640     0.8640864137     0.8069739819
Bq        -1.1075036640     0.8640864137     0.8069739819
Bq        -1.1039429942     1.3634824906     0.7826659581
Bq        -1.1039429942     1.3634824906     0.7826659581
Bq        -1.1003823245     1.8628785675     0.7583579342
Bq        -1.1003823245     1.8628785675     0.7583579342
Bq        -1.0968216548     2.3622746444     0.7340499104
Bq        -1.0968216548     2.3622746444     0.7340499104
Bq        -1.0932609851     2.8616707213     0.7097418866
Bq        -1.0932609851     2.8616707213     0.7097418866
Bq        -1.0897003154     3.3610667981     0.6854338627
Bq        -1.0897003154     3.3610667981     0.6854338627
Bq        -1.0861396457     3.8604628750     0.6611258389
Bq        -1.0861396457     3.8604628750     0.6611258389
Bq        -1.0825789760     4.3598589519     0.6368178151
Bq        -1.0825789760     4.3598589519     0.6368178151
Bq        -0.6234650537    -0.6341018169     0.9523653480
Bq        -0.6234650537    -0.6341018169     0.9523653480
Bq        -0.6199043840    -0.1347057400     0.9280573241
Bq        -0.6199043840    -0.1347057400     0.9280573241
Bq        -0.6163437143     0.3646903368     0.9037493003
Bq        -0.6163437143     0.3646903368     0.9037493003
Bq        -0.6127830446     0.8640864137     0.8794412765
Bq        -0.6127830446     0.8640864137     0.8794412765
Bq        -0.6092223749     1.3634824906     0.8551332526
Bq        -0.6092223749     1.3634824906     0.8551332526
Bq        -0.6056617052     1.8628785675     0.8308252288
Bq        -0.6056617052     1.8628785675     0.8308252288
Bq        -0.6021010355     2.3622746444     0.8065172050
Bq        -0.6021010355     2.3622746444     0.8065172050
Bq        -0.5985403658     2.8616707213     0.7822091811
Bq        -0.5985403658     2.8616707213     0.7822091811
Bq        -0.5949796961     3.3610667981     0.7579011573
Bq        -0.5949796961     3.3610667981     0.7579011573
Bq        -0.5914190263     3.8604628750     0.7335931335
Bq        -0.5914190263     3.8604628750     0.7335931335
Bq        -0.5878583566     4.3598589519     0.7092851096
Bq        -0.5878583566     4.3598589519     0.7092851096
Bq        -0.1287444344    -0.6341018169     1.0248326425
Bq        -0.1287444344    -0.6341018169     1.0248326425
Bq        -0.1251837647    -0.1347057400     1.0005246187
Bq        -0.1251837647    -0.1347057400     1.0005246187
Bq        -0.1216230950     0.3646903368     0.9762165949
Bq        -0.1216230950     0.3646903368     0.9762165949
Bq        -0.1180624252     0.8640864137     0.9519085710
Bq        -0.1180624252     0.8640864137     0.9519085710
Bq        -0.1145017555     1.3634824906     0.9276005472
Bq        -0.1145017555     1.3634824906     0.9276005472
Bq        -0.1109410858     1.8628785675     0.9032925234
Bq        -0.1109410858     1.8628785675     0.9032925234
Bq        -0.1073804161     2.3622746444     0.8789844995
Bq        -0.1073804161     2.3622746444     0.8789844995
Bq        -0.1038197464     2.8616707213     0.8546764757
Bq        -0.1038197464     2.8616707213     0.8546764757
Bq        -0.1002590767     3.3610667981     0.8303684519
Bq        -0.1002590767     3.3610667981     0.8303684519
Bq        -0.0966984070     3.8604628750     0.8060604280
Bq        -0.0966984070     3.8604628750     0.8060604280
Bq        -0.0931377373     4.3598589519     0.7817524042
Bq        -0.0931377373     4.3598589519     0.7817524042
Bq         0.3659761850    -0.6341018169     1.0972999371
Bq         0.3659761850    -0.6341018169     1.0972999371
Bq         0.3695368547    -0.1347057400     1.0729919133
Bq         0.3695368547    -0.1347057400     1.0729919133
Bq         0.3730975244     0.3646903368     1.0486838894
Bq         0.3730975244     0.3646903368     1.0486838894
Bq         0.3766581941     0.8640864137     1.0243758656
Bq         0.3766581941     0.8640864137     1.0243758656
Bq         0.3802188638     1.3634824906     1.0000678418
Bq         0.3802188638     1.3634824906     1.0000678418
Bq         0.3837795335     1.8628785675     0.9757598179
Bq         0.3837795335     1.8628785675     0.9757598179
Bq         0.3873402032     2.3622746444     0.9514517941
Bq         0.3873402032     2.3622746444     0.9514517941
Bq         0.3909008729     2.8616707213     0.9271437703
Bq         0.3909008729     2.8616707213     0.9271437703
Bq         0.3944615427     3.3610667981     0.9028357464
Bq         0.3944615427     3.3610667981     0.9028357464
Bq         0.3980222124     3.8604628750     0.8785277226
Bq         0.3980222124     3.8604628750     0.8785277226
Bq         0.4015828821     4.3598589519     0.8542196988
Bq         0.4015828821     4.3598589519     0.8542196988
Bq         0.8606968043    -0.6341018169     1.1697672317
Bq         0.8606968043    -0.6341018169     1.1697672317
Bq         0.8642574741    -0.1347057400     1.1454592078
Bq         0.8642574741    -0.1347057400     1.1454592078
Bq         0.8678181438     0.3646903368     1.1211511840
Bq         0.8678181438     0.3646903368     1.1211511840
Bq         0.8713788135     0.8640864137     1.0968431602
Bq         0.8713788135     0.8640864137     1.0968431602
Bq         0.8749394832     1.3634824906     1.0725351363
Bq         0.8749394832     1.3634824906     1.0725351363
Bq         0.8785001529     1.8628785675     1.0482271125
Bq         0.8785001529     1.8628785675     1.0482271125
Bq         0.8820608226     2.3622746444     1.0239190887
Bq         0.8820608226     2.3622746444     1.0239190887
Bq         0.8856214923     2.8616707213     0.9996110648
Bq         0.8856214923     2.8616707213     0.9996110648
Bq         0.8891821620     3.3610667981     0.9753030410
Bq         0.8891821620     3.3610667981     0.9753030410
Bq         0.8927428317     3.8604628750     0.9509950172
Bq         0.8927428317     3.8604628750     0.9509950172
Bq         0.8963035014     4.3598589519     0.9266869934
Bq         0.8963035014     4.3598589519     0.9266869934
Bq         1.3554174237    -0.6341018169     1.2422345262
Bq         1.3554174237    -0.6341018169     1.2422345262
Bq         1.3589780934    -0.1347057400     1.2179265024
Bq         1.3589780934    -0.1347057400     1.2179265024
Bq         1.3625387631     0.3646903368     1.1936184786
Bq         1.3625387631     0.3646903368     1.1936184786
Bq         1.3660994328     0.8640864137     1.1693104547
Bq         1.3660994328     0.8640864137     1.1693104547
Bq         1.3696601025     1.3634824906     1.1450024309
Bq         1.3696601025     1.3634824906     1.1450024309
Bq         1.3732207722     1.8628785675     1.1206944071
Bq         1.3732207722     1.8628785675     1.1206944071
Bq         1.3767814420     2.3622746444     1.0963863833
Bq         1.3767814420     2.3622746444     1.0963863833
Bq         1.3803421117     2.8616707213     1.0720783594
Bq         1.3803421117     2.8616707213     1.0720783594
Bq         1.3839027814     3.3610667981     1.0477703356
Bq         1.3839027814     3.3610667981     1.0477703356
Bq         1.3874634511     3.8604628750     1.0234623118
Bq         1.3874634511     3.8604628750     1.0234623118
Bq         1.3910241208     4.3598589519     0.9991542879
Bq         1.3910241208     4.3598589519     0.9991542879
Bq         1.8501380431    -0.6341018169     1.3147018208
Bq         1.8501380431    -0.6341018169     1.3147018208
Bq         1.8536987128    -0.1347057400     1.2903937970
Bq         1.8536987128    -0.1347057400     1.2903937970
Bq         1.8572593825     0.3646903368     1.2660857731
Bq         1.8572593825     0.3646903368     1.2660857731
Bq         1.8608200522     0.8640864137     1.2417777493
Bq         1.8608200522     0.8640864137     1.2417777493
Bq         1.8643807219     1.3634824906     1.2174697255
Bq         1.8643807219     1.3634824906     1.2174697255
Bq         1.8679413916     1.8628785675     1.1931617017
Bq         1.8679413916     1.8628785675     1.1931617017
Bq         1.8715020613     2.3622746444     1.1688536778
Bq         1.8715020613     2.3622746444     1.1688536778
Bq         1.8750627310     2.8616707213     1.1445456540
Bq         1.8750627310     2.8616707213     1.1445456540
Bq         1.8786234007     3.3610667981     1.1202376302
Bq         1.8786234007     3.3610667981     1.1202376302
Bq         1.8821840704     3.8604628750     1.0959296063
Bq         1.8821840704     3.8604628750     1.0959296063
Bq         1.8857447401     4.3598589519     1.0716215825
Bq         1.8857447401     4.3598589519     1.0716215825
Bq         2.3448586624    -0.6341018169     1.3871691154
Bq         2.3448586624    -0.6341018169     1.3871691154
Bq         2.3484193321    -0.1347057400     1.3628610916
Bq         2.3484193321    -0.1347057400     1.3628610916
Bq         2.3519800018     0.3646903368     1.3385530677
Bq         2.3519800018     0.3646903368     1.3385530677
Bq         2.3555406715     0.8640864137     1.3142450439
Bq         2.3555406715     0.8640864137     1.3142450439
Bq         2.3591013413     1.3634824906     1.2899370201
Bq         2.3591013413     1.3634824906     1.2899370201
Bq         2.3626620110     1.8628785675     1.2656289962
Bq         2.3626620110     1.8628785675     1.2656289962
Bq         2.3662226807     2.3622746444     1.2413209724
Bq         2.3662226807     2.3622746444     1.2413209724
Bq         2.3697833504     2.8616707213     1.2170129486
Bq         2.3697833504     2.8616707213     1.2170129486
Bq         2.3733440201     3.3610667981     1.1927049247
Bq         2.3733440201     3.3610667981     1.1927049247
Bq         2.3769046898     3.8604628750     1.1683969009
Bq         2.3769046898     3.8604628750     1.1683969009
Bq         2.3804653595     4.3598589519     1.1440888771
Bq         2.3804653595     4.3598589519     1.1440888771
Bq         2.8395792818    -0.6341018169     1.4596364100

1
2
3
4
5
6
7
8
9
10
11
12
13
14
15
16
17
18
19
20
21
22
23
24
25
26
27
28
29
30
31
32
33
34
35
36
37
38
39
40
41
42
43
44
45
46
47
48
49
50
51
52
53
54
55
56
57
58
59
60
61
62
63
64
65
66
67
68
69
70
71
72
73
74
75
76
77
78
79
80
81
82
83
84
85
86
87
88
89
90
91
92
93
94
95
96
97
98
99
100
101
102
103
104
105
106
107
108
109
110
111
112
113
114
115
116
117
118
119
120
121
122
123
124
125
126
127
128
129
130
131
132
133
134
135
136
137
138
139
140
141
142
143
144
145
146
147
148
149
150
151
152
153
154
155
156
157
158
159
160
161
162
163
164
165
166
167
168
169
170
171
172
173
174
175
176
177
178
179
180
181
182
183
184
185
186
187
188
189
190
191
192
193
194
195
196
197
198
199
200
201
202
203
204
205
206
207
208
209
210
211
212
213
214
215
216
217
218
219
220
221
222
223
224
225
226
227
228
229
230
231
232
233
234
235
236

