%nproc=8
%mem=1000MB
# rb3lyp/6-311+g** NMR geom=connectivity

Title

0 1
C    -4.0500558   -0.5771862    0.8136712
H    -5.0263804   -1.0082727    1.0024760
C    -3.9381552    0.6617804    0.2400876
H    -4.8252424    1.2338890   -0.0111295
C    -2.6768410    1.2433246    0.0057578
C    -1.4974121    0.5051527    0.2848253
C    -1.6508332   -0.7338728    0.9404026
H    -0.7713646   -1.2730967    1.2633753
C    -2.8898548   -1.2624035    1.1994307
H    -2.9683706   -2.2124563    1.7152676
C    -2.5773185    2.5963696   -0.4192930
H    -3.4870728    3.1412239   -0.6474055
C    -1.3741895    3.2147896   -0.4364030
H    -1.2997315    4.2742019   -0.6578144
C    -0.1719488    2.4994090   -0.1734588
C    -0.2043917    1.1018437    0.0192689
C     1.0513491    3.2042560   -0.0676222
H     1.0427344    4.2819499   -0.1896997
C     2.1942091    2.5487446    0.2579577
H     3.1168527    3.0912848    0.4334727
C     2.2216473    1.1336562    0.2934990
C     1.0486931    0.3945528    0.0302412
C     3.4483363    0.4614633    0.5573939
H     4.3095794    1.0606054    0.8334846
C     3.5427346   -0.8855926    0.4749463
H     4.4731467   -1.3939704    0.7038822
C     2.4490052   -1.6474447   -0.0196319
C     1.2150704   -1.0057258   -0.3013573
C     0.2531113   -1.7434440   -1.0216591
H    -0.6541356   -1.2535051   -1.3462847
C     0.4494193   -3.0628597   -1.3413779
H    -0.3083162   -3.5944309   -1.9054060
C     1.6251726   -3.7207967   -0.9552541
H     1.7670048   -4.7687404   -1.1927019
C     2.6109872   -3.0144177   -0.3183050
H     3.5525612   -3.4902813   -0.0646367
Bq        -2.7838586833    -0.0272008000     0.5806958667
Bq        -5.2920066251    -1.8001757297     2.6484854596
Bq        -5.2912986340    -1.8871411637     2.4683840659
Bq        -5.2916526295    -1.8436584467     2.5584347627
Bq        -5.2911519637    -1.3499187664     2.4310735545
Bq        -5.2904439726    -1.4368842004     2.2509721607
Bq        -5.2907979682    -1.3934014834     2.3410228576
Bq        -5.2902973024    -0.8996618030     2.2136616493
Bq        -5.2895893112    -0.9866272370     2.0335602555
Bq        -5.2899433068    -0.9431445200     2.1236109524
Bq        -5.2894426410    -0.4494048397     1.9962497441
Bq        -5.2887346498    -0.5363702737     1.8161483504
Bq        -5.2890886454    -0.4928875567     1.9061990473
Bq        -5.2885879796     0.0008521237     1.7788378390
Bq        -5.2878799885    -0.0861133103     1.5987364452
Bq        -5.2882339840    -0.0426305933     1.6887871421
Bq        -5.2877333182     0.4511090870     1.5614259338
Bq        -5.2870253271     0.3641436530     1.3813245401
Bq        -5.2873793227     0.4076263700     1.4713752369
Bq        -5.2868786569     0.9013660504     1.3440140287
Bq        -5.2861706657     0.8144006164     1.1639126349
Bq        -5.2865246613     0.8578833334     1.2539633318
Bq        -5.2860239955     1.3516230138     1.1266021235
Bq        -5.2853160043     1.2646575797     0.9465007297
Bq        -5.2856699999     1.3081402968     1.0365514266
Bq        -5.2851693341     1.8018799771     0.9091902183
Bq        -5.2844613430     1.7149145431     0.7290888246
Bq        -5.2848153385     1.7583972601     0.8191395215
Bq        -5.2843146727     2.2521369405     0.6917783132
Bq        -5.2836066816     2.1651715065     0.5116769194
Bq        -5.2839606772     2.2086542235     0.6017276163
Bq        -5.2834600114     2.7023939038     0.4743664080
Bq        -5.2827520202     2.6154284698     0.2942650142
Bq        -5.2831060158     2.6589111868     0.3843157111
Bq        -4.7920104884    -1.8001757297     2.6504509793
Bq        -4.7913024972    -1.8871411637     2.4703495856
Bq        -4.7916564928    -1.8436584467     2.5604002825
Bq        -4.7911558270    -1.3499187664     2.4330390742
Bq        -4.7904478359    -1.4368842004     2.2529376804
Bq        -4.7908018314    -1.3934014834     2.3429883773
Bq        -4.7903011656    -0.8996618030     2.2156271690
Bq        -4.7895931745    -0.9866272370     2.0355257753
Bq        -4.7899471701    -0.9431445200     2.1255764721
Bq        -4.7894465043    -0.4494048397     1.9982152639
Bq        -4.7887385131    -0.5363702737     1.8181138701
Bq        -4.7890925087    -0.4928875567     1.9081645670
Bq        -4.7885918429     0.0008521237     1.7808033587
Bq        -4.7878838517    -0.0861133103     1.6007019649
Bq        -4.7882378473    -0.0426305933     1.6907526618
Bq        -4.7877371815     0.4511090870     1.5633914535
Bq        -4.7870291904     0.3641436530     1.3832900598
Bq        -4.7873831859     0.4076263700     1.4733407566
Bq        -4.7868825201     0.9013660504     1.3459795484
Bq        -4.7861745290     0.8144006164     1.1658781546
Bq        -4.7865285246     0.8578833334     1.2559288515
Bq        -4.7860278588     1.3516230138     1.1285676432
Bq        -4.7853198676     1.2646575797     0.9484662494
Bq        -4.7856738632     1.3081402968     1.0385169463
Bq        -4.7851731974     1.8018799771     0.9111557380
Bq        -4.7844652063     1.7149145431     0.7310543443
Bq        -4.7848192018     1.7583972601     0.8211050412
Bq        -4.7843185360     2.2521369405     0.6937438329
Bq        -4.7836105449     2.1651715065     0.5136424391
Bq        -4.7839645405     2.2086542235     0.6036931360
Bq        -4.7834638747     2.7023939038     0.4763319277
Bq        -4.7827558835     2.6154284698     0.2962305340
Bq        -4.7831098791     2.6589111868     0.3862812308
Bq        -4.2920143517    -1.8001757297     2.6524164991
Bq        -4.2913063605    -1.8871411637     2.4723151053
Bq        -4.2916603561    -1.8436584467     2.5623658022
Bq        -4.2911596903    -1.3499187664     2.4350045939
Bq        -4.2904516992    -1.4368842004     2.2549032001
Bq        -4.2908056947    -1.3934014834     2.3449538970
Bq        -4.2903050289    -0.8996618030     2.2175926887
Bq        -4.2895970378    -0.9866272370     2.0374912950
Bq        -4.2899510334    -0.9431445200     2.1275419918
Bq        -4.2894503676    -0.4494048397     2.0001807836
Bq        -4.2887423764    -0.5363702737     1.8200793898
Bq        -4.2890963720    -0.4928875567     1.9101300867
Bq        -4.2885957062     0.0008521237     1.7827688784
Bq        -4.2878877150    -0.0861133103     1.6026674846
Bq        -4.2882417106    -0.0426305933     1.6927181815
Bq        -4.2877410448     0.4511090870     1.5653569732
Bq        -4.2870330537     0.3641436530     1.3852555795
Bq        -4.2873870492     0.4076263700     1.4753062764
Bq        -4.2868863834     0.9013660504     1.3479450681
Bq        -4.2861783923     0.8144006164     1.1678436743
Bq        -4.2865323879     0.8578833334     1.2578943712
Bq        -4.2860317221     1.3516230138     1.1305331629
Bq        -4.2853237309     1.2646575797     0.9504317692
Bq        -4.2856777265     1.3081402968     1.0404824660
Bq        -4.2851770607     1.8018799771     0.9131212578
Bq        -4.2844690695     1.7149145431     0.7330198640
Bq        -4.2848230651     1.7583972601     0.8230705609
Bq        -4.2843223993     2.2521369405     0.6957093526
Bq        -4.2836144082     2.1651715065     0.5156079588
Bq        -4.2839684037     2.2086542235     0.6056586557
Bq        -4.2834677379     2.7023939038     0.4782974474
Bq        -4.2827597468     2.6154284698     0.2981960537
Bq        -4.2831137424     2.6589111868     0.3882467505
Bq        -3.7920182150    -1.8001757297     2.6543820188
Bq        -3.7913102238    -1.8871411637     2.4742806250
Bq        -3.7916642194    -1.8436584467     2.5643313219
Bq        -3.7911635536    -1.3499187664     2.4369701136
Bq        -3.7904555624    -1.4368842004     2.2568687198
Bq        -3.7908095580    -1.3934014834     2.3469194167
Bq        -3.7903088922    -0.8996618030     2.2195582084
Bq        -3.7896009011    -0.9866272370     2.0394568147
Bq        -3.7899548966    -0.9431445200     2.1295075116
Bq        -3.7894542308    -0.4494048397     2.0021463033
Bq        -3.7887462397    -0.5363702737     1.8220449095
Bq        -3.7891002353    -0.4928875567     1.9120956064
Bq        -3.7885995695     0.0008521237     1.7847343981
Bq        -3.7878915783    -0.0861133103     1.6046330044
Bq        -3.7882455739    -0.0426305933     1.6946837012
Bq        -3.7877449081     0.4511090870     1.5673224930
Bq        -3.7870369169     0.3641436530     1.3872210992
Bq        -3.7873909125     0.4076263700     1.4772717961
Bq        -3.7868902467     0.9013660504     1.3499105878
Bq        -3.7861822556     0.8144006164     1.1698091940
Bq        -3.7865362511     0.8578833334     1.2598598909
Bq        -3.7860355853     1.3516230138     1.1324986826
Bq        -3.7853275942     1.2646575797     0.9523972889
Bq        -3.7856815898     1.3081402968     1.0424479857
Bq        -3.7851809240     1.8018799771     0.9150867775
Bq        -3.7844729328     1.7149145431     0.7349853837
Bq        -3.7848269284     1.7583972601     0.8250360806
Bq        -3.7843262626     2.2521369405     0.6976748723
Bq        -3.7836182714     2.1651715065     0.5175734785
Bq        -3.7839722670     2.2086542235     0.6076241754
Bq        -3.7834716012     2.7023939038     0.4802629671
Bq        -3.7827636101     2.6154284698     0.3001615734
Bq        -3.7831176056     2.6589111868     0.3902122703
Bq        -3.2920220782    -1.8001757297     2.6563475385
Bq        -3.2913140871    -1.8871411637     2.4762461447
Bq        -3.2916680827    -1.8436584467     2.5662968416
Bq        -3.2911674169    -1.3499187664     2.4389356333
Bq        -3.2904594257    -1.4368842004     2.2588342395
Bq        -3.2908134213    -1.3934014834     2.3488849364
Bq        -3.2903127555    -0.8996618030     2.2215237282
Bq        -3.2896047643    -0.9866272370     2.0414223344
Bq        -3.2899587599    -0.9431445200     2.1314730313
Bq        -3.2894580941    -0.4494048397     2.0041118230
Bq        -3.2887501030    -0.5363702737     1.8240104292
Bq        -3.2891040985    -0.4928875567     1.9140611261
Bq        -3.2886034327     0.0008521237     1.7866999178
Bq        -3.2878954416    -0.0861133103     1.6065985241
Bq        -3.2882494372    -0.0426305933     1.6966492209
Bq        -3.2877487714     0.4511090870     1.5692880127
Bq        -3.2870407802     0.3641436530     1.3891866189
Bq        -3.2873947758     0.4076263700     1.4792373158
Bq        -3.2868941100     0.9013660504     1.3518761075
Bq        -3.2861861188     0.8144006164     1.1717747137
Bq        -3.2865401144     0.8578833334     1.2618254106
Bq        -3.2860394486     1.3516230138     1.1344642023
Bq        -3.2853314575     1.2646575797     0.9543628086
Bq        -3.2856854530     1.3081402968     1.0444135055
Bq        -3.2851847873     1.8018799771     0.9170522972
Bq        -3.2844767961     1.7149145431     0.7369509034
Bq        -3.2848307917     1.7583972601     0.8270016003
Bq        -3.2843301259     2.2521369405     0.6996403920
Bq        -3.2836221347     2.1651715065     0.5195389982
Bq        -3.2839761303     2.2086542235     0.6095896951
Bq        -3.2834754645     2.7023939038     0.4822284869
Bq        -3.2827674734     2.6154284698     0.3021270931
Bq        -3.2831214689     2.6589111868     0.3921777900
Bq        -2.7920259415    -1.8001757297     2.6583130582
Bq        -2.7913179504    -1.8871411637     2.4782116644
Bq        -2.7916719459    -1.8436584467     2.5682623613
Bq        -2.7911712801    -1.3499187664     2.4409011530
Bq        -2.7904632890    -1.4368842004     2.2607997593
Bq        -2.7908172846    -1.3934014834     2.3508504561
Bq        -2.7903166188    -0.8996618030     2.2234892479
Bq        -2.7896086276    -0.9866272370     2.0433878541
Bq        -2.7899626232    -0.9431445200     2.1334385510
Bq        -2.7894619574    -0.4494048397     2.0060773427
Bq        -2.7887539663    -0.5363702737     1.8259759489
Bq        -2.7891079618    -0.4928875567     1.9160266458
Bq        -2.7886072960     0.0008521237     1.7886654375
Bq        -2.7878993049    -0.0861133103     1.6085640438
Bq        -2.7882533005    -0.0426305933     1.6986147407
Bq        -2.7877526347     0.4511090870     1.5712535324
Bq        -2.7870446435     0.3641436530     1.3911521386
Bq        -2.7873986391     0.4076263700     1.4812028355
Bq        -2.7868979733     0.9013660504     1.3538416272
Bq        -2.7861899821     0.8144006164     1.1737402334
Bq        -2.7865439777     0.8578833334     1.2637909303
Bq        -2.7860433119     1.3516230138     1.1364297221
Bq        -2.7853353208     1.2646575797     0.9563283283
Bq        -2.7856893163     1.3081402968     1.0463790252
Bq        -2.7851886505     1.8018799771     0.9190178169
Bq        -2.7844806594     1.7149145431     0.7389164231
Bq        -2.7848346550     1.7583972601     0.8289671200
Bq        -2.7843339892     2.2521369405     0.7016059117
Bq        -2.7836259980     2.1651715065     0.5215045180
Bq        -2.7839799936     2.2086542235     0.6115552148
Bq        -2.7834793278     2.7023939038     0.4841940066
Bq        -2.7827713366     2.6154284698     0.3040926128
Bq        -2.7831253322     2.6589111868     0.3941433097
Bq        -2.2920298048    -1.8001757297     2.6602785779

1
2
3
4
5
6
7
8
9
10
11
12
13
14
15
16
17
18
19
20
21
22
23
24
25
26
27
28
29
30
31
32
33
34
35
36
37
38
39
40
41
42
43
44
45
46
47
48
49
50
51
52
53
54
55
56
57
58
59
60
61
62
63
64
65
66
67
68
69
70
71
72
73
74
75
76
77
78
79
80
81
82
83
84
85
86
87
88
89
90
91
92
93
94
95
96
97
98
99
100
101
102
103
104
105
106
107
108
109
110
111
112
113
114
115
116
117
118
119
120
121
122
123
124
125
126
127
128
129
130
131
132
133
134
135
136
137
138
139
140
141
142
143
144
145
146
147
148
149
150
151
152
153
154
155
156
157
158
159
160
161
162
163
164
165
166
167
168
169
170
171
172
173
174
175
176
177
178
179
180
181
182
183
184
185
186
187
188
189
190
191
192
193
194
195
196
197
198
199
200
201
202
203
204
205
206
207
208
209
210
211
212
213
214
215
216
217
218
219
220
221
222
223
224
225
226
227
228
229
230
231
232
233
234
235
236

