%nproc=8
%mem=1000MB
# rb3lyp/6-311+g** NMR geom=connectivity

Title

0 1
C    -4.0500558   -0.5771862    0.8136712
H    -5.0263804   -1.0082727    1.0024760
C    -3.9381552    0.6617804    0.2400876
H    -4.8252424    1.2338890   -0.0111295
C    -2.6768410    1.2433246    0.0057578
C    -1.4974121    0.5051527    0.2848253
C    -1.6508332   -0.7338728    0.9404026
H    -0.7713646   -1.2730967    1.2633753
C    -2.8898548   -1.2624035    1.1994307
H    -2.9683706   -2.2124563    1.7152676
C    -2.5773185    2.5963696   -0.4192930
H    -3.4870728    3.1412239   -0.6474055
C    -1.3741895    3.2147896   -0.4364030
H    -1.2997315    4.2742019   -0.6578144
C    -0.1719488    2.4994090   -0.1734588
C    -0.2043917    1.1018437    0.0192689
C     1.0513491    3.2042560   -0.0676222
H     1.0427344    4.2819499   -0.1896997
C     2.1942091    2.5487446    0.2579577
H     3.1168527    3.0912848    0.4334727
C     2.2216473    1.1336562    0.2934990
C     1.0486931    0.3945528    0.0302412
C     3.4483363    0.4614633    0.5573939
H     4.3095794    1.0606054    0.8334846
C     3.5427346   -0.8855926    0.4749463
H     4.4731467   -1.3939704    0.7038822
C     2.4490052   -1.6474447   -0.0196319
C     1.2150704   -1.0057258   -0.3013573
C     0.2531113   -1.7434440   -1.0216591
H    -0.6541356   -1.2535051   -1.3462847
C     0.4494193   -3.0628597   -1.3413779
H    -0.3083162   -3.5944309   -1.9054060
C     1.6251726   -3.7207967   -0.9552541
H     1.7670048   -4.7687404   -1.1927019
C     2.6109872   -3.0144177   -0.3183050
H     3.5525612   -3.4902813   -0.0646367
Bq        -1.4170169333     1.8601482000    -0.1198838000
Bq        -3.9777963981    -0.3178544247     1.3629220200
Bq        -3.9777963981    -0.3178544247     1.3629220200
Bq        -3.9729316269     0.1668447350     1.2402718728
Bq        -3.9729316269     0.1668447350     1.2402718728
Bq        -3.9680668558     0.6515438947     1.1176217257
Bq        -3.9680668558     0.6515438947     1.1176217257
Bq        -3.9632020847     1.1362430544     0.9949715786
Bq        -3.9632020847     1.1362430544     0.9949715786
Bq        -3.9583373136     1.6209422141     0.8723214314
Bq        -3.9583373136     1.6209422141     0.8723214314
Bq        -3.9534725424     2.1056413738     0.7496712843
Bq        -3.9534725424     2.1056413738     0.7496712843
Bq        -3.9486077713     2.5903405335     0.6270211372
Bq        -3.9486077713     2.5903405335     0.6270211372
Bq        -3.9437430002     3.0750396931     0.5043709900
Bq        -3.9437430002     3.0750396931     0.5043709900
Bq        -3.9388782291     3.5597388528     0.3817208429
Bq        -3.9388782291     3.5597388528     0.3817208429
Bq        -3.9340134580     4.0444380125     0.2590706958
Bq        -3.9340134580     4.0444380125     0.2590706958
Bq        -3.9291486868     4.5291371722     0.1364205486
Bq        -3.9291486868     4.5291371722     0.1364205486
Bq        -3.4781892389    -0.3178544247     1.3827383393
Bq        -3.4781892389    -0.3178544247     1.3827383393
Bq        -3.4733244678     0.1668447350     1.2600881922
Bq        -3.4733244678     0.1668447350     1.2600881922
Bq        -3.4684596966     0.6515438947     1.1374380450
Bq        -3.4684596966     0.6515438947     1.1374380450
Bq        -3.4635949255     1.1362430544     1.0147878979
Bq        -3.4635949255     1.1362430544     1.0147878979
Bq        -3.4587301544     1.6209422141     0.8921377508
Bq        -3.4587301544     1.6209422141     0.8921377508
Bq        -3.4538653833     2.1056413738     0.7694876036
Bq        -3.4538653833     2.1056413738     0.7694876036
Bq        -3.4490006122     2.5903405335     0.6468374565
Bq        -3.4490006122     2.5903405335     0.6468374565
Bq        -3.4441358410     3.0750396931     0.5241873093
Bq        -3.4441358410     3.0750396931     0.5241873093
Bq        -3.4392710699     3.5597388528     0.4015371622
Bq        -3.4392710699     3.5597388528     0.4015371622
Bq        -3.4344062988     4.0444380125     0.2788870151
Bq        -3.4344062988     4.0444380125     0.2788870151
Bq        -3.4295415277     4.5291371722     0.1562368679
Bq        -3.4295415277     4.5291371722     0.1562368679
Bq        -2.9785820797    -0.3178544247     1.4025546586
Bq        -2.9785820797    -0.3178544247     1.4025546586
Bq        -2.9737173086     0.1668447350     1.2799045115
Bq        -2.9737173086     0.1668447350     1.2799045115
Bq        -2.9688525375     0.6515438947     1.1572543643
Bq        -2.9688525375     0.6515438947     1.1572543643
Bq        -2.9639877664     1.1362430544     1.0346042172
Bq        -2.9639877664     1.1362430544     1.0346042172
Bq        -2.9591229952     1.6209422141     0.9119540701
Bq        -2.9591229952     1.6209422141     0.9119540701
Bq        -2.9542582241     2.1056413738     0.7893039229
Bq        -2.9542582241     2.1056413738     0.7893039229
Bq        -2.9493934530     2.5903405335     0.6666537758
Bq        -2.9493934530     2.5903405335     0.6666537758
Bq        -2.9445286819     3.0750396931     0.5440036287
Bq        -2.9445286819     3.0750396931     0.5440036287
Bq        -2.9396639108     3.5597388528     0.4213534815
Bq        -2.9396639108     3.5597388528     0.4213534815
Bq        -2.9347991396     4.0444380125     0.2987033344
Bq        -2.9347991396     4.0444380125     0.2987033344
Bq        -2.9299343685     4.5291371722     0.1760531873
Bq        -2.9299343685     4.5291371722     0.1760531873
Bq        -2.4789749206    -0.3178544247     1.4223709779
Bq        -2.4789749206    -0.3178544247     1.4223709779
Bq        -2.4741101494     0.1668447350     1.2997208308
Bq        -2.4741101494     0.1668447350     1.2997208308
Bq        -2.4692453783     0.6515438947     1.1770706837
Bq        -2.4692453783     0.6515438947     1.1770706837
Bq        -2.4643806072     1.1362430544     1.0544205365
Bq        -2.4643806072     1.1362430544     1.0544205365
Bq        -2.4595158361     1.6209422141     0.9317703894
Bq        -2.4595158361     1.6209422141     0.9317703894
Bq        -2.4546510650     2.1056413738     0.8091202423
Bq        -2.4546510650     2.1056413738     0.8091202423
Bq        -2.4497862938     2.5903405335     0.6864700951
Bq        -2.4497862938     2.5903405335     0.6864700951
Bq        -2.4449215227     3.0750396931     0.5638199480
Bq        -2.4449215227     3.0750396931     0.5638199480
Bq        -2.4400567516     3.5597388528     0.4411698009
Bq        -2.4400567516     3.5597388528     0.4411698009
Bq        -2.4351919805     4.0444380125     0.3185196537
Bq        -2.4351919805     4.0444380125     0.3185196537
Bq        -2.4303272093     4.5291371722     0.1958695066
Bq        -2.4303272093     4.5291371722     0.1958695066
Bq        -1.9793677614    -0.3178544247     1.4421872973
Bq        -1.9793677614    -0.3178544247     1.4421872973
Bq        -1.9745029903     0.1668447350     1.3195371501
Bq        -1.9745029903     0.1668447350     1.3195371501
Bq        -1.9696382192     0.6515438947     1.1968870030
Bq        -1.9696382192     0.6515438947     1.1968870030
Bq        -1.9647734480     1.1362430544     1.0742368559
Bq        -1.9647734480     1.1362430544     1.0742368559
Bq        -1.9599086769     1.6209422141     0.9515867087
Bq        -1.9599086769     1.6209422141     0.9515867087
Bq        -1.9550439058     2.1056413738     0.8289365616
Bq        -1.9550439058     2.1056413738     0.8289365616
Bq        -1.9501791347     2.5903405335     0.7062864144
Bq        -1.9501791347     2.5903405335     0.7062864144
Bq        -1.9453143635     3.0750396931     0.5836362673
Bq        -1.9453143635     3.0750396931     0.5836362673
Bq        -1.9404495924     3.5597388528     0.4609861202
Bq        -1.9404495924     3.5597388528     0.4609861202
Bq        -1.9355848213     4.0444380125     0.3383359730
Bq        -1.9355848213     4.0444380125     0.3383359730
Bq        -1.9307200502     4.5291371722     0.2156858259
Bq        -1.9307200502     4.5291371722     0.2156858259
Bq        -1.4797606022    -0.3178544247     1.4620036166
Bq        -1.4797606022    -0.3178544247     1.4620036166
Bq        -1.4748958311     0.1668447350     1.3393534694
Bq        -1.4748958311     0.1668447350     1.3393534694
Bq        -1.4700310600     0.6515438947     1.2167033223
Bq        -1.4700310600     0.6515438947     1.2167033223
Bq        -1.4651662889     1.1362430544     1.0940531752
Bq        -1.4651662889     1.1362430544     1.0940531752
Bq        -1.4603015177     1.6209422141     0.9714030280
Bq        -1.4603015177     1.6209422141     0.9714030280
Bq        -1.4554367466     2.1056413738     0.8487528809
Bq        -1.4554367466     2.1056413738     0.8487528809
Bq        -1.4505719755     2.5903405335     0.7261027338
Bq        -1.4505719755     2.5903405335     0.7261027338
Bq        -1.4457072044     3.0750396931     0.6034525866
Bq        -1.4457072044     3.0750396931     0.6034525866
Bq        -1.4408424333     3.5597388528     0.4808024395
Bq        -1.4408424333     3.5597388528     0.4808024395
Bq        -1.4359776621     4.0444380125     0.3581522924
Bq        -1.4359776621     4.0444380125     0.3581522924
Bq        -1.4311128910     4.5291371722     0.2355021452
Bq        -1.4311128910     4.5291371722     0.2355021452
Bq        -0.9801534431    -0.3178544247     1.4818199359
Bq        -0.9801534431    -0.3178544247     1.4818199359
Bq        -0.9752886719     0.1668447350     1.3591697888
Bq        -0.9752886719     0.1668447350     1.3591697888
Bq        -0.9704239008     0.6515438947     1.2365196416
Bq        -0.9704239008     0.6515438947     1.2365196416
Bq        -0.9655591297     1.1362430544     1.1138694945
Bq        -0.9655591297     1.1362430544     1.1138694945
Bq        -0.9606943586     1.6209422141     0.9912193474
Bq        -0.9606943586     1.6209422141     0.9912193474
Bq        -0.9558295875     2.1056413738     0.8685692002
Bq        -0.9558295875     2.1056413738     0.8685692002
Bq        -0.9509648163     2.5903405335     0.7459190531
Bq        -0.9509648163     2.5903405335     0.7459190531
Bq        -0.9461000452     3.0750396931     0.6232689059
Bq        -0.9461000452     3.0750396931     0.6232689059
Bq        -0.9412352741     3.5597388528     0.5006187588
Bq        -0.9412352741     3.5597388528     0.5006187588
Bq        -0.9363705030     4.0444380125     0.3779686117
Bq        -0.9363705030     4.0444380125     0.3779686117
Bq        -0.9315057318     4.5291371722     0.2553184645
Bq        -0.9315057318     4.5291371722     0.2553184645
Bq        -0.4805462839    -0.3178544247     1.5016362552
Bq        -0.4805462839    -0.3178544247     1.5016362552
Bq        -0.4756815128     0.1668447350     1.3789861081
Bq        -0.4756815128     0.1668447350     1.3789861081
Bq        -0.4708167417     0.6515438947     1.2563359609
Bq        -0.4708167417     0.6515438947     1.2563359609
Bq        -0.4659519705     1.1362430544     1.1336858138
Bq        -0.4659519705     1.1362430544     1.1336858138
Bq        -0.4610871994     1.6209422141     1.0110356667
Bq        -0.4610871994     1.6209422141     1.0110356667
Bq        -0.4562224283     2.1056413738     0.8883855195
Bq        -0.4562224283     2.1056413738     0.8883855195
Bq        -0.4513576572     2.5903405335     0.7657353724
Bq        -0.4513576572     2.5903405335     0.7657353724
Bq        -0.4464928861     3.0750396931     0.6430852253
Bq        -0.4464928861     3.0750396931     0.6430852253
Bq        -0.4416281149     3.5597388528     0.5204350781
Bq        -0.4416281149     3.5597388528     0.5204350781
Bq        -0.4367633438     4.0444380125     0.3977849310
Bq        -0.4367633438     4.0444380125     0.3977849310
Bq        -0.4318985727     4.5291371722     0.2751347839
Bq        -0.4318985727     4.5291371722     0.2751347839
Bq         0.0190608753    -0.3178544247     1.5214525745
Bq         0.0190608753    -0.3178544247     1.5214525745
Bq         0.0239256464     0.1668447350     1.3988024274
Bq         0.0239256464     0.1668447350     1.3988024274
Bq         0.0287904175     0.6515438947     1.2761522803
Bq         0.0287904175     0.6515438947     1.2761522803
Bq         0.0336551886     1.1362430544     1.1535021331
Bq         0.0336551886     1.1362430544     1.1535021331
Bq         0.0385199597     1.6209422141     1.0308519860
Bq         0.0385199597     1.6209422141     1.0308519860
Bq         0.0433847309     2.1056413738     0.9082018389
Bq         0.0433847309     2.1056413738     0.9082018389
Bq         0.0482495020     2.5903405335     0.7855516917
Bq         0.0482495020     2.5903405335     0.7855516917
Bq         0.0531142731     3.0750396931     0.6629015446
Bq         0.0531142731     3.0750396931     0.6629015446
Bq         0.0579790442     3.5597388528     0.5402513975
Bq         0.0579790442     3.5597388528     0.5402513975
Bq         0.0628438154     4.0444380125     0.4176012503
Bq         0.0628438154     4.0444380125     0.4176012503
Bq         0.0677085865     4.5291371722     0.2949511032
Bq         0.0677085865     4.5291371722     0.2949511032
Bq         0.5186680344    -0.3178544247     1.5412688939

1
2
3
4
5
6
7
8
9
10
11
12
13
14
15
16
17
18
19
20
21
22
23
24
25
26
27
28
29
30
31
32
33
34
35
36
37
38
39
40
41
42
43
44
45
46
47
48
49
50
51
52
53
54
55
56
57
58
59
60
61
62
63
64
65
66
67
68
69
70
71
72
73
74
75
76
77
78
79
80
81
82
83
84
85
86
87
88
89
90
91
92
93
94
95
96
97
98
99
100
101
102
103
104
105
106
107
108
109
110
111
112
113
114
115
116
117
118
119
120
121
122
123
124
125
126
127
128
129
130
131
132
133
134
135
136
137
138
139
140
141
142
143
144
145
146
147
148
149
150
151
152
153
154
155
156
157
158
159
160
161
162
163
164
165
166
167
168
169
170
171
172
173
174
175
176
177
178
179
180
181
182
183
184
185
186
187
188
189
190
191
192
193
194
195
196
197
198
199
200
201
202
203
204
205
206
207
208
209
210
211
212
213
214
215
216
217
218
219
220
221
222
223
224
225
226
227
228
229
230
231
232
233
234
235
236

