%nproc=8
%mem=1000MB
# rb3lyp/6-311+g** NMR geom=connectivity

Title

0 1
C    -4.0500558   -0.5771862    0.8136712
H    -5.0263804   -1.0082727    1.0024760
C    -3.9381552    0.6617804    0.2400876
H    -4.8252424    1.2338890   -0.0111295
C    -2.6768410    1.2433246    0.0057578
C    -1.4974121    0.5051527    0.2848253
C    -1.6508332   -0.7338728    0.9404026
H    -0.7713646   -1.2730967    1.2633753
C    -2.8898548   -1.2624035    1.1994307
H    -2.9683706   -2.2124563    1.7152676
C    -2.5773185    2.5963696   -0.4192930
H    -3.4870728    3.1412239   -0.6474055
C    -1.3741895    3.2147896   -0.4364030
H    -1.2997315    4.2742019   -0.6578144
C    -0.1719488    2.4994090   -0.1734588
C    -0.2043917    1.1018437    0.0192689
C     1.0513491    3.2042560   -0.0676222
H     1.0427344    4.2819499   -0.1896997
C     2.1942091    2.5487446    0.2579577
H     3.1168527    3.0912848    0.4334727
C     2.2216473    1.1336562    0.2934990
C     1.0486931    0.3945528    0.0302412
C     3.4483363    0.4614633    0.5573939
H     4.3095794    1.0606054    0.8334846
C     3.5427346   -0.8855926    0.4749463
H     4.4731467   -1.3939704    0.7038822
C     2.4490052   -1.6474447   -0.0196319
C     1.2150704   -1.0057258   -0.3013573
C     0.2531113   -1.7434440   -1.0216591
H    -0.6541356   -1.2535051   -1.3462847
C     0.4494193   -3.0628597   -1.3413779
H    -0.3083162   -3.5944309   -1.9054060
C     1.6251726   -3.7207967   -0.9552541
H     1.7670048   -4.7687404   -1.1927019
C     2.6109872   -3.0144177   -0.3183050
H     3.5525612   -3.4902813   -0.0646367
Bq         1.4337943333    -2.3657814333    -0.6595975500
Bq        -0.9658833031    -5.0417625122    -1.4216162550
Bq        -0.9658833031    -5.0417625122    -1.4216162550
Bq        -1.0209156699    -4.5597975986    -1.3004500027
Bq        -1.0209156699    -4.5597975986    -1.3004500027
Bq        -1.0759480368    -4.0778326851    -1.1792837505
Bq        -1.0759480368    -4.0778326851    -1.1792837505
Bq        -1.1309804037    -3.5958677715    -1.0581174982
Bq        -1.1309804037    -3.5958677715    -1.0581174982
Bq        -1.1860127705    -3.1139028580    -0.9369512459
Bq        -1.1860127705    -3.1139028580    -0.9369512459
Bq        -1.2410451374    -2.6319379444    -0.8157849936
Bq        -1.2410451374    -2.6319379444    -0.8157849936
Bq        -1.2960775042    -2.1499730308    -0.6946187413
Bq        -1.2960775042    -2.1499730308    -0.6946187413
Bq        -1.3511098711    -1.6680081173    -0.5734524890
Bq        -1.3511098711    -1.6680081173    -0.5734524890
Bq        -1.4061422380    -1.1860432037    -0.4522862367
Bq        -1.4061422380    -1.1860432037    -0.4522862367
Bq        -1.4611746048    -0.7040782902    -0.3311199844
Bq        -1.4611746048    -0.7040782902    -0.3311199844
Bq        -1.5162069717    -0.2221133766    -0.2099537321
Bq        -1.5162069717    -0.2221133766    -0.2099537321
Bq        -0.5106389365    -5.0417625122    -1.2148493169
Bq        -0.5106389365    -5.0417625122    -1.2148493169
Bq        -0.5656713034    -4.5597975986    -1.0936830646
Bq        -0.5656713034    -4.5597975986    -1.0936830646
Bq        -0.6207036702    -4.0778326851    -0.9725168123
Bq        -0.6207036702    -4.0778326851    -0.9725168123
Bq        -0.6757360371    -3.5958677715    -0.8513505600
Bq        -0.6757360371    -3.5958677715    -0.8513505600
Bq        -0.7307684040    -3.1139028580    -0.7301843077
Bq        -0.7307684040    -3.1139028580    -0.7301843077
Bq        -0.7858007708    -2.6319379444    -0.6090180554
Bq        -0.7858007708    -2.6319379444    -0.6090180554
Bq        -0.8408331377    -2.1499730308    -0.4878518031
Bq        -0.8408331377    -2.1499730308    -0.4878518031
Bq        -0.8958655045    -1.6680081173    -0.3666855509
Bq        -0.8958655045    -1.6680081173    -0.3666855509
Bq        -0.9508978714    -1.1860432037    -0.2455192986
Bq        -0.9508978714    -1.1860432037    -0.2455192986
Bq        -1.0059302383    -0.7040782902    -0.1243530463
Bq        -1.0059302383    -0.7040782902    -0.1243530463
Bq        -1.0609626051    -0.2221133766    -0.0031867940
Bq        -1.0609626051    -0.2221133766    -0.0031867940
Bq        -0.0553945699    -5.0417625122    -1.0080823787
Bq        -0.0553945699    -5.0417625122    -1.0080823787
Bq        -0.1104269368    -4.5597975986    -0.8869161265
Bq        -0.1104269368    -4.5597975986    -0.8869161265
Bq        -0.1654593037    -4.0778326851    -0.7657498742
Bq        -0.1654593037    -4.0778326851    -0.7657498742
Bq        -0.2204916705    -3.5958677715    -0.6445836219
Bq        -0.2204916705    -3.5958677715    -0.6445836219
Bq        -0.2755240374    -3.1139028580    -0.5234173696
Bq        -0.2755240374    -3.1139028580    -0.5234173696
Bq        -0.3305564042    -2.6319379444    -0.4022511173
Bq        -0.3305564042    -2.6319379444    -0.4022511173
Bq        -0.3855887711    -2.1499730308    -0.2810848650
Bq        -0.3855887711    -2.1499730308    -0.2810848650
Bq        -0.4406211380    -1.6680081173    -0.1599186127
Bq        -0.4406211380    -1.6680081173    -0.1599186127
Bq        -0.4956535048    -1.1860432037    -0.0387523604
Bq        -0.4956535048    -1.1860432037    -0.0387523604
Bq        -0.5506858717    -0.7040782902     0.0824138919
Bq        -0.5506858717    -0.7040782902     0.0824138919
Bq        -0.6057182385    -0.2221133766     0.2035801442
Bq        -0.6057182385    -0.2221133766     0.2035801442
Bq         0.3998497966    -5.0417625122    -0.8013154406
Bq         0.3998497966    -5.0417625122    -0.8013154406
Bq         0.3448174298    -4.5597975986    -0.6801491883
Bq         0.3448174298    -4.5597975986    -0.6801491883
Bq         0.2897850629    -4.0778326851    -0.5589829360
Bq         0.2897850629    -4.0778326851    -0.5589829360
Bq         0.2347526960    -3.5958677715    -0.4378166837
Bq         0.2347526960    -3.5958677715    -0.4378166837
Bq         0.1797203292    -3.1139028580    -0.3166504314
Bq         0.1797203292    -3.1139028580    -0.3166504314
Bq         0.1246879623    -2.6319379444    -0.1954841792
Bq         0.1246879623    -2.6319379444    -0.1954841792
Bq         0.0696555955    -2.1499730308    -0.0743179269
Bq         0.0696555955    -2.1499730308    -0.0743179269
Bq         0.0146232286    -1.6680081173     0.0468483254
Bq         0.0146232286    -1.6680081173     0.0468483254
Bq        -0.0404091383    -1.1860432037     0.1680145777
Bq        -0.0404091383    -1.1860432037     0.1680145777
Bq        -0.0954415051    -0.7040782902     0.2891808300
Bq        -0.0954415051    -0.7040782902     0.2891808300
Bq        -0.1504738720    -0.2221133766     0.4103470823
Bq        -0.1504738720    -0.2221133766     0.4103470823
Bq         0.8550941632    -5.0417625122    -0.5945485025
Bq         0.8550941632    -5.0417625122    -0.5945485025
Bq         0.8000617963    -4.5597975986    -0.4733822502
Bq         0.8000617963    -4.5597975986    -0.4733822502
Bq         0.7450294295    -4.0778326851    -0.3522159979
Bq         0.7450294295    -4.0778326851    -0.3522159979
Bq         0.6899970626    -3.5958677715    -0.2310497456
Bq         0.6899970626    -3.5958677715    -0.2310497456
Bq         0.6349646958    -3.1139028580    -0.1098834933
Bq         0.6349646958    -3.1139028580    -0.1098834933
Bq         0.5799323289    -2.6319379444     0.0112827590
Bq         0.5799323289    -2.6319379444     0.0112827590
Bq         0.5248999620    -2.1499730308     0.1324490113
Bq         0.5248999620    -2.1499730308     0.1324490113
Bq         0.4698675952    -1.6680081173     0.2536152636
Bq         0.4698675952    -1.6680081173     0.2536152636
Bq         0.4148352283    -1.1860432037     0.3747815159
Bq         0.4148352283    -1.1860432037     0.3747815159
Bq         0.3598028614    -0.7040782902     0.4959477681
Bq         0.3598028614    -0.7040782902     0.4959477681
Bq         0.3047704946    -0.2221133766     0.6171140204
Bq         0.3047704946    -0.2221133766     0.6171140204
Bq         1.3103385298    -5.0417625122    -0.3877815643
Bq         1.3103385298    -5.0417625122    -0.3877815643
Bq         1.2553061629    -4.5597975986    -0.2666153120
Bq         1.2553061629    -4.5597975986    -0.2666153120
Bq         1.2002737960    -4.0778326851    -0.1454490597
Bq         1.2002737960    -4.0778326851    -0.1454490597
Bq         1.1452414292    -3.5958677715    -0.0242828075
Bq         1.1452414292    -3.5958677715    -0.0242828075
Bq         1.0902090623    -3.1139028580     0.0968834448
Bq         1.0902090623    -3.1139028580     0.0968834448
Bq         1.0351766955    -2.6319379444     0.2180496971
Bq         1.0351766955    -2.6319379444     0.2180496971
Bq         0.9801443286    -2.1499730308     0.3392159494
Bq         0.9801443286    -2.1499730308     0.3392159494
Bq         0.9251119617    -1.6680081173     0.4603822017
Bq         0.9251119617    -1.6680081173     0.4603822017
Bq         0.8700795949    -1.1860432037     0.5815484540
Bq         0.8700795949    -1.1860432037     0.5815484540
Bq         0.8150472280    -0.7040782902     0.7027147063
Bq         0.8150472280    -0.7040782902     0.7027147063
Bq         0.7600148612    -0.2221133766     0.8238809586
Bq         0.7600148612    -0.2221133766     0.8238809586
Bq         1.7655828963    -5.0417625122    -0.1810146262
Bq         1.7655828963    -5.0417625122    -0.1810146262
Bq         1.7105505295    -4.5597975986    -0.0598483739
Bq         1.7105505295    -4.5597975986    -0.0598483739
Bq         1.6555181626    -4.0778326851     0.0613178784
Bq         1.6555181626    -4.0778326851     0.0613178784
Bq         1.6004857957    -3.5958677715     0.1824841307
Bq         1.6004857957    -3.5958677715     0.1824841307
Bq         1.5454534289    -3.1139028580     0.3036503830
Bq         1.5454534289    -3.1139028580     0.3036503830
Bq         1.4904210620    -2.6319379444     0.4248166353
Bq         1.4904210620    -2.6319379444     0.4248166353
Bq         1.4353886952    -2.1499730308     0.5459828876
Bq         1.4353886952    -2.1499730308     0.5459828876
Bq         1.3803563283    -1.6680081173     0.6671491398
Bq         1.3803563283    -1.6680081173     0.6671491398
Bq         1.3253239614    -1.1860432037     0.7883153921
Bq         1.3253239614    -1.1860432037     0.7883153921
Bq         1.2702915946    -0.7040782902     0.9094816444
Bq         1.2702915946    -0.7040782902     0.9094816444
Bq         1.2152592277    -0.2221133766     1.0306478967
Bq         1.2152592277    -0.2221133766     1.0306478967
Bq         2.2208272629    -5.0417625122     0.0257523120
Bq         2.2208272629    -5.0417625122     0.0257523120
Bq         2.1657948960    -4.5597975986     0.1469185643
Bq         2.1657948960    -4.5597975986     0.1469185643
Bq         2.1107625292    -4.0778326851     0.2680848165
Bq         2.1107625292    -4.0778326851     0.2680848165
Bq         2.0557301623    -3.5958677715     0.3892510688
Bq         2.0557301623    -3.5958677715     0.3892510688
Bq         2.0006977955    -3.1139028580     0.5104173211
Bq         2.0006977955    -3.1139028580     0.5104173211
Bq         1.9456654286    -2.6319379444     0.6315835734
Bq         1.9456654286    -2.6319379444     0.6315835734
Bq         1.8906330617    -2.1499730308     0.7527498257
Bq         1.8906330617    -2.1499730308     0.7527498257
Bq         1.8356006949    -1.6680081173     0.8739160780
Bq         1.8356006949    -1.6680081173     0.8739160780
Bq         1.7805683280    -1.1860432037     0.9950823303
Bq         1.7805683280    -1.1860432037     0.9950823303
Bq         1.7255359612    -0.7040782902     1.1162485826
Bq         1.7255359612    -0.7040782902     1.1162485826
Bq         1.6705035943    -0.2221133766     1.2374148349
Bq         1.6705035943    -0.2221133766     1.2374148349
Bq         2.6760716295    -5.0417625122     0.2325192501
Bq         2.6760716295    -5.0417625122     0.2325192501
Bq         2.6210392626    -4.5597975986     0.3536855024
Bq         2.6210392626    -4.5597975986     0.3536855024
Bq         2.5660068957    -4.0778326851     0.4748517547
Bq         2.5660068957    -4.0778326851     0.4748517547
Bq         2.5109745289    -3.5958677715     0.5960180070
Bq         2.5109745289    -3.5958677715     0.5960180070
Bq         2.4559421620    -3.1139028580     0.7171842593
Bq         2.4559421620    -3.1139028580     0.7171842593
Bq         2.4009097952    -2.6319379444     0.8383505116
Bq         2.4009097952    -2.6319379444     0.8383505116
Bq         2.3458774283    -2.1499730308     0.9595167638
Bq         2.3458774283    -2.1499730308     0.9595167638
Bq         2.2908450614    -1.6680081173     1.0806830161
Bq         2.2908450614    -1.6680081173     1.0806830161
Bq         2.2358126946    -1.1860432037     1.2018492684
Bq         2.2358126946    -1.1860432037     1.2018492684
Bq         2.1807803277    -0.7040782902     1.3230155207
Bq         2.1807803277    -0.7040782902     1.3230155207
Bq         2.1257479609    -0.2221133766     1.4441817730
Bq         2.1257479609    -0.2221133766     1.4441817730
Bq         3.1313159960    -5.0417625122     0.4392861882

1
2
3
4
5
6
7
8
9
10
11
12
13
14
15
16
17
18
19
20
21
22
23
24
25
26
27
28
29
30
31
32
33
34
35
36
37
38
39
40
41
42
43
44
45
46
47
48
49
50
51
52
53
54
55
56
57
58
59
60
61
62
63
64
65
66
67
68
69
70
71
72
73
74
75
76
77
78
79
80
81
82
83
84
85
86
87
88
89
90
91
92
93
94
95
96
97
98
99
100
101
102
103
104
105
106
107
108
109
110
111
112
113
114
115
116
117
118
119
120
121
122
123
124
125
126
127
128
129
130
131
132
133
134
135
136
137
138
139
140
141
142
143
144
145
146
147
148
149
150
151
152
153
154
155
156
157
158
159
160
161
162
163
164
165
166
167
168
169
170
171
172
173
174
175
176
177
178
179
180
181
182
183
184
185
186
187
188
189
190
191
192
193
194
195
196
197
198
199
200
201
202
203
204
205
206
207
208
209
210
211
212
213
214
215
216
217
218
219
220
221
222
223
224
225
226
227
228
229
230
231
232
233
234
235
236

