%nproc=8
%mem=1000MB
# rb3lyp/6-311+g** NMR geom=connectivity

Title

0 1
C    -4.0500558   -0.5771862    0.8136712
H    -5.0263804   -1.0082727    1.0024760
C    -3.9381552    0.6617804    0.2400876
H    -4.8252424    1.2338890   -0.0111295
C    -2.6768410    1.2433246    0.0057578
C    -1.4974121    0.5051527    0.2848253
C    -1.6508332   -0.7338728    0.9404026
H    -0.7713646   -1.2730967    1.2633753
C    -2.8898548   -1.2624035    1.1994307
H    -2.9683706   -2.2124563    1.7152676
C    -2.5773185    2.5963696   -0.4192930
H    -3.4870728    3.1412239   -0.6474055
C    -1.3741895    3.2147896   -0.4364030
H    -1.2997315    4.2742019   -0.6578144
C    -0.1719488    2.4994090   -0.1734588
C    -0.2043917    1.1018437    0.0192689
C     1.0513491    3.2042560   -0.0676222
H     1.0427344    4.2819499   -0.1896997
C     2.1942091    2.5487446    0.2579577
H     3.1168527    3.0912848    0.4334727
C     2.2216473    1.1336562    0.2934990
C     1.0486931    0.3945528    0.0302412
C     3.4483363    0.4614633    0.5573939
H     4.3095794    1.0606054    0.8334846
C     3.5427346   -0.8855926    0.4749463
H     4.4731467   -1.3939704    0.7038822
C     2.4490052   -1.6474447   -0.0196319
C     1.2150704   -1.0057258   -0.3013573
C     0.2531113   -1.7434440   -1.0216591
H    -0.6541356   -1.2535051   -1.3462847
C     0.4494193   -3.0628597   -1.3413779
H    -0.3083162   -3.5944309   -1.9054060
C     1.6251726   -3.7207967   -0.9552541
H     1.7670048   -4.7687404   -1.1927019
C     2.6109872   -3.0144177   -0.3183050
H     3.5525612   -3.4902813   -0.0646367
Bq        -2.2913218137    -1.8871411637     2.4801771841
Bq        -2.2916758092    -1.8436584467     2.5702278810
Bq        -2.2911751434    -1.3499187664     2.4428666727
Bq        -2.2904671523    -1.4368842004     2.2627652790
Bq        -2.2908211479    -1.3934014834     2.3528159759
Bq        -2.2903204821    -0.8996618030     2.2254547676
Bq        -2.2896124909    -0.9866272370     2.0453533738
Bq        -2.2899664865    -0.9431445200     2.1354040707
Bq        -2.2894658207    -0.4494048397     2.0080428624
Bq        -2.2887578295    -0.5363702737     1.8279414686
Bq        -2.2891118251    -0.4928875567     1.9179921655
Bq        -2.2886111593     0.0008521237     1.7906309572
Bq        -2.2879031682    -0.0861133103     1.6105295635
Bq        -2.2882571637    -0.0426305933     1.7005802604
Bq        -2.2877564979     0.4511090870     1.5732190521
Bq        -2.2870485068     0.3641436530     1.3931176583
Bq        -2.2874025024     0.4076263700     1.4831683552
Bq        -2.2869018366     0.9013660504     1.3558071469
Bq        -2.2861938454     0.8144006164     1.1757057532
Bq        -2.2865478410     0.8578833334     1.2657564500
Bq        -2.2860471752     1.3516230138     1.1383952418
Bq        -2.2853391840     1.2646575797     0.9582938480
Bq        -2.2856931796     1.3081402968     1.0483445449
Bq        -2.2851925138     1.8018799771     0.9209833366
Bq        -2.2844845227     1.7149145431     0.7408819428
Bq        -2.2848385182     1.7583972601     0.8309326397
Bq        -2.2843378524     2.2521369405     0.7035714314
Bq        -2.2836298613     2.1651715065     0.5234700377
Bq        -2.2839838569     2.2086542235     0.6135207346
Bq        -2.2834831911     2.7023939038     0.4861595263
Bq        -2.2827751999     2.6154284698     0.3060581325
Bq        -2.2831291955     2.6589111868     0.3961088294
Bq        -1.7920336681    -1.8001757297     2.6622440976
Bq        -1.7913256769    -1.8871411637     2.4821427038
Bq        -1.7916796725    -1.8436584467     2.5721934007
Bq        -1.7911790067    -1.3499187664     2.4448321924
Bq        -1.7904710156    -1.4368842004     2.2647307987
Bq        -1.7908250111    -1.3934014834     2.3547814956
Bq        -1.7903243453    -0.8996618030     2.2274202873
Bq        -1.7896163542    -0.9866272370     2.0473188935
Bq        -1.7899703498    -0.9431445200     2.1373695904
Bq        -1.7894696840    -0.4494048397     2.0100083821
Bq        -1.7887616928    -0.5363702737     1.8299069884
Bq        -1.7891156884    -0.4928875567     1.9199576852
Bq        -1.7886150226     0.0008521237     1.7925964770
Bq        -1.7879070314    -0.0861133103     1.6124950832
Bq        -1.7882610270    -0.0426305933     1.7025457801
Bq        -1.7877603612     0.4511090870     1.5751845718
Bq        -1.7870523701     0.3641436530     1.3950831780
Bq        -1.7874063656     0.4076263700     1.4851338749
Bq        -1.7869056998     0.9013660504     1.3577726666
Bq        -1.7861977087     0.8144006164     1.1776712729
Bq        -1.7865517043     0.8578833334     1.2677219698
Bq        -1.7860510385     1.3516230138     1.1403607615
Bq        -1.7853430473     1.2646575797     0.9602593677
Bq        -1.7856970429     1.3081402968     1.0503100646
Bq        -1.7851963771     1.8018799771     0.9229488563
Bq        -1.7844883859     1.7149145431     0.7428474625
Bq        -1.7848423815     1.7583972601     0.8328981594
Bq        -1.7843417157     2.2521369405     0.7055369511
Bq        -1.7836337246     2.1651715065     0.5254355574
Bq        -1.7839877202     2.2086542235     0.6154862543
Bq        -1.7834870544     2.7023939038     0.4881250460
Bq        -1.7827790632     2.6154284698     0.3080236522
Bq        -1.7831330588     2.6589111868     0.3980743491
Bq        -1.2920375314    -1.8001757297     2.6642096173
Bq        -1.2913295402    -1.8871411637     2.4841082236
Bq        -1.2916835358    -1.8436584467     2.5741589204
Bq        -1.2911828700    -1.3499187664     2.4467977122
Bq        -1.2904748788    -1.4368842004     2.2666963184
Bq        -1.2908288744    -1.3934014834     2.3567470153
Bq        -1.2903282086    -0.8996618030     2.2293858070
Bq        -1.2896202175    -0.9866272370     2.0492844132
Bq        -1.2899742130    -0.9431445200     2.1393351101
Bq        -1.2894735472    -0.4494048397     2.0119739018
Bq        -1.2887655561    -0.5363702737     1.8318725081
Bq        -1.2891195517    -0.4928875567     1.9219232050
Bq        -1.2886188859     0.0008521237     1.7945619967
Bq        -1.2879108947    -0.0861133103     1.6144606029
Bq        -1.2882648903    -0.0426305933     1.7045112998
Bq        -1.2877642245     0.4511090870     1.5771500915
Bq        -1.2870562334     0.3641436530     1.3970486977
Bq        -1.2874102289     0.4076263700     1.4870993946
Bq        -1.2869095631     0.9013660504     1.3597381863
Bq        -1.2862015720     0.8144006164     1.1796367926
Bq        -1.2865555676     0.8578833334     1.2696874895
Bq        -1.2860549018     1.3516230138     1.1423262812
Bq        -1.2853469106     1.2646575797     0.9622248874
Bq        -1.2857009062     1.3081402968     1.0522755843
Bq        -1.2852002404     1.8018799771     0.9249143760
Bq        -1.2844922492     1.7149145431     0.7448129823
Bq        -1.2848462448     1.7583972601     0.8348636791
Bq        -1.2843455790     2.2521369405     0.7075024709
Bq        -1.2836375879     2.1651715065     0.5274010771
Bq        -1.2839915834     2.2086542235     0.6174517740
Bq        -1.2834909176     2.7023939038     0.4900905657
Bq        -1.2827829265     2.6154284698     0.3099891719
Bq        -1.2831369221     2.6589111868     0.4000398688
Bq        -0.7920413947    -1.8001757297     2.6661751370
Bq        -0.7913334035    -1.8871411637     2.4860737433
Bq        -0.7916873991    -1.8436584467     2.5761244401
Bq        -0.7911867333    -1.3499187664     2.4487632319
Bq        -0.7904787421    -1.4368842004     2.2686618381
Bq        -0.7908327377    -1.3934014834     2.3587125350
Bq        -0.7903320719    -0.8996618030     2.2313513267
Bq        -0.7896240808    -0.9866272370     2.0512499329
Bq        -0.7899780763    -0.9431445200     2.1413006298
Bq        -0.7894774105    -0.4494048397     2.0139394215
Bq        -0.7887694194    -0.5363702737     1.8338380278
Bq        -0.7891234150    -0.4928875567     1.9238887247
Bq        -0.7886227492     0.0008521237     1.7965275164
Bq        -0.7879147580    -0.0861133103     1.6164261226
Bq        -0.7882687536    -0.0426305933     1.7064768195
Bq        -0.7877680878     0.4511090870     1.5791156112
Bq        -0.7870600966     0.3641436530     1.3990142175
Bq        -0.7874140922     0.4076263700     1.4890649143
Bq        -0.7869134264     0.9013660504     1.3617037061
Bq        -0.7862054353     0.8144006164     1.1816023123
Bq        -0.7865594308     0.8578833334     1.2716530092
Bq        -0.7860587650     1.3516230138     1.1442918009
Bq        -0.7853507739     1.2646575797     0.9641904071
Bq        -0.7857047695     1.3081402968     1.0542411040
Bq        -0.7852041037     1.8018799771     0.9268798957
Bq        -0.7844961125     1.7149145431     0.7467785020
Bq        -0.7848501081     1.7583972601     0.8368291988
Bq        -0.7843494423     2.2521369405     0.7094679906
Bq        -0.7836414511     2.1651715065     0.5293665968
Bq        -0.7839954467     2.2086542235     0.6194172937
Bq        -0.7834947809     2.7023939038     0.4920560854
Bq        -0.7827867898     2.6154284698     0.3119546916
Bq        -0.7831407853     2.6589111868     0.4020053885
Bq        -0.2920452579    -1.8001757297     2.6681406567
Bq        -0.2913372668    -1.8871411637     2.4880392630
Bq        -0.2916912624    -1.8436584467     2.5780899599
Bq        -0.2911905966    -1.3499187664     2.4507287516
Bq        -0.2904826054    -1.4368842004     2.2706273578
Bq        -0.2908366010    -1.3934014834     2.3606780547
Bq        -0.2903359352    -0.8996618030     2.2333168464
Bq        -0.2896279440    -0.9866272370     2.0532154527
Bq        -0.2899819396    -0.9431445200     2.1432661495
Bq        -0.2894812738    -0.4494048397     2.0159049413
Bq        -0.2887732827    -0.5363702737     1.8358035475
Bq        -0.2891272782    -0.4928875567     1.9258542444
Bq        -0.2886266124     0.0008521237     1.7984930361
Bq        -0.2879186213    -0.0861133103     1.6183916423
Bq        -0.2882726169    -0.0426305933     1.7084423392
Bq        -0.2877719511     0.4511090870     1.5810811309
Bq        -0.2870639599     0.3641436530     1.4009797372
Bq        -0.2874179555     0.4076263700     1.4910304340
Bq        -0.2869172897     0.9013660504     1.3636692258
Bq        -0.2862092985     0.8144006164     1.1835678320
Bq        -0.2865632941     0.8578833334     1.2736185289
Bq        -0.2860626283     1.3516230138     1.1462573206
Bq        -0.2853546372     1.2646575797     0.9661559268
Bq        -0.2857086327     1.3081402968     1.0562066237
Bq        -0.2852079669     1.8018799771     0.9288454154
Bq        -0.2844999758     1.7149145431     0.7487440217
Bq        -0.2848539714     1.7583972601     0.8387947186
Bq        -0.2843533056     2.2521369405     0.7114335103
Bq        -0.2836453144     2.1651715065     0.5313321165
Bq        -0.2839993100     2.2086542235     0.6213828134
Bq        -0.2834986442     2.7023939038     0.4940216051
Bq        -0.2827906530     2.6154284698     0.3139202114
Bq        -0.2831446486     2.6589111868     0.4039709082

1
2
3
4
5
6
7
8
9
10
11
12
13
14
15
16
17
18
19
20
21
22
23
24
25
26
27
28
29
30
31
32
33
34
35
36
37
38
39
40
41
42
43
44
45
46
47
48
49
50
51
52
53
54
55
56
57
58
59
60
61
62
63
64
65
66
67
68
69
70
71
72
73
74
75
76
77
78
79
80
81
82
83
84
85
86
87
88
89
90
91
92
93
94
95
96
97
98
99
100
101
102
103
104
105
106
107
108
109
110
111
112
113
114
115
116
117
118
119
120
121
122
123
124
125
126
127
128
129
130
131
132
133
134
135
136
137
138
139
140
141
142
143
144
145
146
147
148
149
150
151
152
153
154
155
156
157
158
159
160
161
162
163
164
165
166
167
168
169
170
171
172
173
174
175
176
177
178
179
180
181
182
183
184
185
186
187
188
189
190
191
192
193
194
195
196
197
198
199
200

