%nproc=8
%mem=1000MB
# rb3lyp/6-311+g** NMR geom=connectivity

Title

0 1
C    -4.0500558   -0.5771862    0.8136712
H    -5.0263804   -1.0082727    1.0024760
C    -3.9381552    0.6617804    0.2400876
H    -4.8252424    1.2338890   -0.0111295
C    -2.6768410    1.2433246    0.0057578
C    -1.4974121    0.5051527    0.2848253
C    -1.6508332   -0.7338728    0.9404026
H    -0.7713646   -1.2730967    1.2633753
C    -2.8898548   -1.2624035    1.1994307
H    -2.9683706   -2.2124563    1.7152676
C    -2.5773185    2.5963696   -0.4192930
H    -3.4870728    3.1412239   -0.6474055
C    -1.3741895    3.2147896   -0.4364030
H    -1.2997315    4.2742019   -0.6578144
C    -0.1719488    2.4994090   -0.1734588
C    -0.2043917    1.1018437    0.0192689
C     1.0513491    3.2042560   -0.0676222
H     1.0427344    4.2819499   -0.1896997
C     2.1942091    2.5487446    0.2579577
H     3.1168527    3.0912848    0.4334727
C     2.2216473    1.1336562    0.2934990
C     1.0486931    0.3945528    0.0302412
C     3.4483363    0.4614633    0.5573939
H     4.3095794    1.0606054    0.8334846
C     3.5427346   -0.8855926    0.4749463
H     4.4731467   -1.3939704    0.7038822
C     2.4490052   -1.6474447   -0.0196319
C     1.2150704   -1.0057258   -0.3013573
C     0.2531113   -1.7434440   -1.0216591
H    -0.6541356   -1.2535051   -1.3462847
C     0.4494193   -3.0628597   -1.3413779
H    -0.3083162   -3.5944309   -1.9054060
C     1.6251726   -3.7207967   -0.9552541
H     1.7670048   -4.7687404   -1.1927019
C     2.6109872   -3.0144177   -0.3183050
H     3.5525612   -3.4902813   -0.0646367
Bq         1.4337943333    -2.3657814333    -0.6595975500
Bq        -1.0057450669    -5.0683781633    -1.3338515303
Bq        -0.9260215393    -5.0151468611    -1.5093809797
Bq        -0.9658833031    -5.0417625122    -1.4216162550
Bq        -1.0607774337    -4.5864132498    -1.2126852780
Bq        -0.9810539061    -4.5331819475    -1.3882147275
Bq        -1.0209156699    -4.5597975986    -1.3004500027
Bq        -1.1158098006    -4.1044483362    -1.0915190257
Bq        -1.0360862730    -4.0512170340    -1.2670484752
Bq        -1.0759480368    -4.0778326851    -1.1792837505
Bq        -1.1708421674    -3.6224834226    -0.9703527734
Bq        -1.0911186399    -3.5692521204    -1.1458822229
Bq        -1.1309804037    -3.5958677715    -1.0581174982
Bq        -1.2258745343    -3.1405185091    -0.8491865212
Bq        -1.1461510067    -3.0872872069    -1.0247159706
Bq        -1.1860127705    -3.1139028580    -0.9369512459
Bq        -1.2809069012    -2.6585535955    -0.7280202689
Bq        -1.2011833736    -2.6053222933    -0.9035497183
Bq        -1.2410451374    -2.6319379444    -0.8157849936
Bq        -1.3359392680    -2.1765886819    -0.6068540166
Bq        -1.2562157405    -2.1233573797    -0.7823834660
Bq        -1.2960775042    -2.1499730308    -0.6946187413
Bq        -1.3909716349    -1.6946237684    -0.4856877643
Bq        -1.3112481073    -1.6413924662    -0.6612172137
Bq        -1.3511098711    -1.6680081173    -0.5734524890
Bq        -1.4460040017    -1.2126588548    -0.3645215120
Bq        -1.3662804742    -1.1594275526    -0.5400509614
Bq        -1.4061422380    -1.1860432037    -0.4522862367
Bq        -1.5010363686    -0.7306939413    -0.2433552597
Bq        -1.4213128410    -0.6774626391    -0.4188847091
Bq        -1.4611746048    -0.7040782902    -0.3311199844
Bq        -1.5560687355    -0.2487290277    -0.1221890074
Bq        -1.4763452079    -0.1954977255    -0.2977184568
Bq        -1.5162069717    -0.2221133766    -0.2099537321
Bq        -0.5505007003    -5.0683781633    -1.1270845922
Bq        -0.4707771727    -5.0151468611    -1.3026140416
Bq        -0.5106389365    -5.0417625122    -1.2148493169
Bq        -0.6055330672    -4.5864132498    -1.0059183399
Bq        -0.5258095396    -4.5331819475    -1.1814477893
Bq        -0.5656713034    -4.5597975986    -1.0936830646
Bq        -0.6605654340    -4.1044483362    -0.8847520876
Bq        -0.5808419064    -4.0512170340    -1.0602815370
Bq        -0.6207036702    -4.0778326851    -0.9725168123
Bq        -0.7155978009    -3.6224834226    -0.7635858353
Bq        -0.6358742733    -3.5692521204    -0.9391152847
Bq        -0.6757360371    -3.5958677715    -0.8513505600
Bq        -0.7706301677    -3.1405185091    -0.6424195830
Bq        -0.6909066402    -3.0872872069    -0.8179490324
Bq        -0.7307684040    -3.1139028580    -0.7301843077
Bq        -0.8256625346    -2.6585535955    -0.5212533307
Bq        -0.7459390070    -2.6053222933    -0.6967827802
Bq        -0.7858007708    -2.6319379444    -0.6090180554
Bq        -0.8806949015    -2.1765886819    -0.4000870784
Bq        -0.8009713739    -2.1233573797    -0.5756165279
Bq        -0.8408331377    -2.1499730308    -0.4878518031
Bq        -0.9357272683    -1.6946237684    -0.2789208261
Bq        -0.8560037407    -1.6413924662    -0.4544502756
Bq        -0.8958655045    -1.6680081173    -0.3666855509
Bq        -0.9907596352    -1.2126588548    -0.1577545739
Bq        -0.9110361076    -1.1594275526    -0.3332840233
Bq        -0.9508978714    -1.1860432037    -0.2455192986
Bq        -1.0457920020    -0.7306939413    -0.0365883216
Bq        -0.9660684745    -0.6774626391    -0.2121177710
Bq        -1.0059302383    -0.7040782902    -0.1243530463
Bq        -1.1008243689    -0.2487290277     0.0845779307
Bq        -1.0211008413    -0.1954977255    -0.0909515187
Bq        -1.0609626051    -0.2221133766    -0.0031867940
Bq        -0.0952563337    -5.0683781633    -0.9203176540
Bq        -0.0155328062    -5.0151468611    -1.0958471035
Bq        -0.0553945699    -5.0417625122    -1.0080823787
Bq        -0.1502887006    -4.5864132498    -0.7991514017
Bq        -0.0705651730    -4.5331819475    -0.9746808512
Bq        -0.1104269368    -4.5597975986    -0.8869161265
Bq        -0.2053210675    -4.1044483362    -0.6779851495
Bq        -0.1255975399    -4.0512170340    -0.8535145989
Bq        -0.1654593037    -4.0778326851    -0.7657498742
Bq        -0.2603534343    -3.6224834226    -0.5568188972
Bq        -0.1806299067    -3.5692521204    -0.7323483466
Bq        -0.2204916705    -3.5958677715    -0.6445836219
Bq        -0.3153858012    -3.1405185091    -0.4356526449
Bq        -0.2356622736    -3.0872872069    -0.6111820943
Bq        -0.2755240374    -3.1139028580    -0.5234173696
Bq        -0.3704181680    -2.6585535955    -0.3144863926
Bq        -0.2906946405    -2.6053222933    -0.4900158420
Bq        -0.3305564042    -2.6319379444    -0.4022511173
Bq        -0.4254505349    -2.1765886819    -0.1933201403
Bq        -0.3457270073    -2.1233573797    -0.3688495897
Bq        -0.3855887711    -2.1499730308    -0.2810848650
Bq        -0.4804829018    -1.6946237684    -0.0721538880
Bq        -0.4007593742    -1.6413924662    -0.2476833374
Bq        -0.4406211380    -1.6680081173    -0.1599186127
Bq        -0.5355152686    -1.2126588548     0.0490123643
Bq        -0.4557917410    -1.1594275526    -0.1265170851
Bq        -0.4956535048    -1.1860432037    -0.0387523604
Bq        -0.5905476355    -0.7306939413     0.1701786166
Bq        -0.5108241079    -0.6774626391    -0.0053508329
Bq        -0.5506858717    -0.7040782902     0.0824138919
Bq        -0.6455800023    -0.2487290277     0.2913448689
Bq        -0.5658564748    -0.1954977255     0.1158154194
Bq        -0.6057182385    -0.2221133766     0.2035801442
Bq         0.3599880328    -5.0683781633    -0.7135507159
Bq         0.4397115604    -5.0151468611    -0.8890801653
Bq         0.3998497966    -5.0417625122    -0.8013154406
Bq         0.3049556660    -4.5864132498    -0.5923844636
Bq         0.3846791936    -4.5331819475    -0.7679139130
Bq         0.3448174298    -4.5597975986    -0.6801491883
Bq         0.2499232991    -4.1044483362    -0.4712182113
Bq         0.3296468267    -4.0512170340    -0.6467476607
Bq         0.2897850629    -4.0778326851    -0.5589829360
Bq         0.1948909323    -3.6224834226    -0.3500519590
Bq         0.2746144598    -3.5692521204    -0.5255814084
Bq         0.2347526960    -3.5958677715    -0.4378166837
Bq         0.1398585654    -3.1405185091    -0.2288857067
Bq         0.2195820930    -3.0872872069    -0.4044151562
Bq         0.1797203292    -3.1139028580    -0.3166504314
Bq         0.0848261985    -2.6585535955    -0.1077194544
Bq         0.1645497261    -2.6053222933    -0.2832489039
Bq         0.1246879623    -2.6319379444    -0.1954841792
Bq         0.0297938317    -2.1765886819     0.0134467978
Bq         0.1095173593    -2.1233573797    -0.1620826516
Bq         0.0696555955    -2.1499730308    -0.0743179269
Bq        -0.0252385352    -1.6946237684     0.1346130501
Bq         0.0544849924    -1.6413924662    -0.0409163993
Bq         0.0146232286    -1.6680081173     0.0468483254
Bq        -0.0802709020    -1.2126588548     0.2557793024
Bq        -0.0005473745    -1.1594275526     0.0802498530
Bq        -0.0404091383    -1.1860432037     0.1680145777
Bq        -0.1353032689    -0.7306939413     0.3769455547
Bq        -0.0555797413    -0.6774626391     0.2014161053
Bq        -0.0954415051    -0.7040782902     0.2891808300
Bq        -0.1903356358    -0.2487290277     0.4981118070
Bq        -0.1106121082    -0.1954977255     0.3225823576
Bq        -0.1504738720    -0.2221133766     0.4103470823
Bq         0.8152323994    -5.0683781633    -0.5067837778
Bq         0.8949559270    -5.0151468611    -0.6823132272
Bq         0.8550941632    -5.0417625122    -0.5945485025
Bq         0.7602000325    -4.5864132498    -0.3856175255
Bq         0.8399235601    -4.5331819475    -0.5611469749
Bq         0.8000617963    -4.5597975986    -0.4733822502
Bq         0.7051676657    -4.1044483362    -0.2644512732
Bq         0.7848911933    -4.0512170340    -0.4399807226
Bq         0.7450294295    -4.0778326851    -0.3522159979
Bq         0.6501352988    -3.6224834226    -0.1432850209
Bq         0.7298588264    -3.5692521204    -0.3188144703
Bq         0.6899970626    -3.5958677715    -0.2310497456
Bq         0.5951029320    -3.1405185091    -0.0221187686
Bq         0.6748264595    -3.0872872069    -0.1976482180
Bq         0.6349646958    -3.1139028580    -0.1098834933
Bq         0.5400705651    -2.6585535955     0.0990474837
Bq         0.6197940927    -2.6053222933    -0.0764819657
Bq         0.5799323289    -2.6319379444     0.0112827590
Bq         0.4850381982    -2.1765886819     0.2202137360
Bq         0.5647617258    -2.1233573797     0.0446842866
Bq         0.5248999620    -2.1499730308     0.1324490113
Bq         0.4300058314    -1.6946237684     0.3413799883
Bq         0.5097293590    -1.6413924662     0.1658505389
Bq         0.4698675952    -1.6680081173     0.2536152636
Bq         0.3749734645    -1.2126588548     0.4625462406
Bq         0.4546969921    -1.1594275526     0.2870167911
Bq         0.4148352283    -1.1860432037     0.3747815159
Bq         0.3199410977    -0.7306939413     0.5837124929
Bq         0.3996646252    -0.6774626391     0.4081830434
Bq         0.3598028614    -0.7040782902     0.4959477681
Bq         0.2649087308    -0.2487290277     0.7048787451
Bq         0.3446322584    -0.1954977255     0.5293492957
Bq         0.3047704946    -0.2221133766     0.6171140204
Bq         1.2704767660    -5.0683781633    -0.3000168396
Bq         1.3502002935    -5.0151468611    -0.4755462890
Bq         1.3103385298    -5.0417625122    -0.3877815643
Bq         1.2154443991    -4.5864132498    -0.1788505873
Bq         1.2951679267    -4.5331819475    -0.3543800367
Bq         1.2553061629    -4.5597975986    -0.2666153120
Bq         1.1604120323    -4.1044483362    -0.0576843350
Bq         1.2401355598    -4.0512170340    -0.2332137845
Bq         1.2002737960    -4.0778326851    -0.1454490597
Bq         1.1053796654    -3.6224834226     0.0634819173
Bq         1.1851031930    -3.5692521204    -0.1120475322
Bq         1.1452414292    -3.5958677715    -0.0242828075
Bq         1.0503472985    -3.1405185091     0.1846481695
Bq         1.1300708261    -3.0872872069     0.0091187201
Bq         1.0902090623    -3.1139028580     0.0968834448
Bq         0.9953149317    -2.6585535955     0.3058144218
Bq         1.0750384592    -2.6053222933     0.1302849724
Bq         1.0351766955    -2.6319379444     0.2180496971
Bq         0.9402825648    -2.1765886819     0.4269806741
Bq         1.0200060924    -2.1233573797     0.2514512247
Bq         0.9801443286    -2.1499730308     0.3392159494
Bq         0.8852501979    -1.6946237684     0.5481469264
Bq         0.9649737255    -1.6413924662     0.3726174770
Bq         0.9251119617    -1.6680081173     0.4603822017
Bq         0.8302178311    -1.2126588548     0.6693131787
Bq         0.9099413587    -1.1594275526     0.4937837293
Bq         0.8700795949    -1.1860432037     0.5815484540
Bq         0.7751854642    -0.7306939413     0.7904794310
Bq         0.8549089918    -0.6774626391     0.6149499816
Bq         0.8150472280    -0.7040782902     0.7027147063
Bq         0.7201530974    -0.2487290277     0.9116456833
Bq         0.7998766249    -0.1954977255     0.7361162339
Bq         0.7600148612    -0.2221133766     0.8238809586
Bq         1.7257211325    -5.0683781633    -0.0932499015

1
2
3
4
5
6
7
8
9
10
11
12
13
14
15
16
17
18
19
20
21
22
23
24
25
26
27
28
29
30
31
32
33
34
35
36
37
38
39
40
41
42
43
44
45
46
47
48
49
50
51
52
53
54
55
56
57
58
59
60
61
62
63
64
65
66
67
68
69
70
71
72
73
74
75
76
77
78
79
80
81
82
83
84
85
86
87
88
89
90
91
92
93
94
95
96
97
98
99
100
101
102
103
104
105
106
107
108
109
110
111
112
113
114
115
116
117
118
119
120
121
122
123
124
125
126
127
128
129
130
131
132
133
134
135
136
137
138
139
140
141
142
143
144
145
146
147
148
149
150
151
152
153
154
155
156
157
158
159
160
161
162
163
164
165
166
167
168
169
170
171
172
173
174
175
176
177
178
179
180
181
182
183
184
185
186
187
188
189
190
191
192
193
194
195
196
197
198
199
200
201
202
203
204
205
206
207
208
209
210
211
212
213
214
215
216
217
218
219
220
221
222
223
224
225
226
227
228
229
230
231
232
233
234
235
236

