%nproc=8
%mem=1000MB
# rb3lyp/6-311+g** NMR geom=connectivity

Title

0 1
C    -4.0500558   -0.5771862    0.8136712
H    -5.0263804   -1.0082727    1.0024760
C    -3.9381552    0.6617804    0.2400876
H    -4.8252424    1.2338890   -0.0111295
C    -2.6768410    1.2433246    0.0057578
C    -1.4974121    0.5051527    0.2848253
C    -1.6508332   -0.7338728    0.9404026
H    -0.7713646   -1.2730967    1.2633753
C    -2.8898548   -1.2624035    1.1994307
H    -2.9683706   -2.2124563    1.7152676
C    -2.5773185    2.5963696   -0.4192930
H    -3.4870728    3.1412239   -0.6474055
C    -1.3741895    3.2147896   -0.4364030
H    -1.2997315    4.2742019   -0.6578144
C    -0.1719488    2.4994090   -0.1734588
C    -0.2043917    1.1018437    0.0192689
C     1.0513491    3.2042560   -0.0676222
H     1.0427344    4.2819499   -0.1896997
C     2.1942091    2.5487446    0.2579577
H     3.1168527    3.0912848    0.4334727
C     2.2216473    1.1336562    0.2934990
C     1.0486931    0.3945528    0.0302412
C     3.4483363    0.4614633    0.5573939
H     4.3095794    1.0606054    0.8334846
C     3.5427346   -0.8855926    0.4749463
H     4.4731467   -1.3939704    0.7038822
C     2.4490052   -1.6474447   -0.0196319
C     1.2150704   -1.0057258   -0.3013573
C     0.2531113   -1.7434440   -1.0216591
H    -0.6541356   -1.2535051   -1.3462847
C     0.4494193   -3.0628597   -1.3413779
H    -0.3083162   -3.5944309   -1.9054060
C     1.6251726   -3.7207967   -0.9552541
H     1.7670048   -4.7687404   -1.1927019
C     2.6109872   -3.0144177   -0.3183050
H     3.5525612   -3.4902813   -0.0646367
Bq         2.3209144833    -0.2581818000     0.1725152000
Bq        -0.2580041477    -2.8750257412     0.1363699073
Bq        -0.2580041477    -2.8750257412     0.1363699073
Bq        -0.2764594003    -2.3801122710     0.2050726050
Bq        -0.2764594003    -2.3801122710     0.2050726050
Bq        -0.2949146530    -1.8851988008     0.2737753028
Bq        -0.2949146530    -1.8851988008     0.2737753028
Bq        -0.3133699057    -1.3902853306     0.3424780006
Bq        -0.3133699057    -1.3902853306     0.3424780006
Bq        -0.3318251584    -0.8953718605     0.4111806984
Bq        -0.3318251584    -0.8953718605     0.4111806984
Bq        -0.3502804111    -0.4004583903     0.4798833962
Bq        -0.3502804111    -0.4004583903     0.4798833962
Bq        -0.3687356637     0.0944550799     0.5485860940
Bq        -0.3687356637     0.0944550799     0.5485860940
Bq        -0.3871909164     0.5893685501     0.6172887918
Bq        -0.3871909164     0.5893685501     0.6172887918
Bq        -0.4056461691     1.0842820203     0.6859914896
Bq        -0.4056461691     1.0842820203     0.6859914896
Bq        -0.4241014218     1.5791954904     0.7546941874
Bq        -0.4241014218     1.5791954904     0.7546941874
Bq        -0.4425566744     2.0741089606     0.8233968852
Bq        -0.4425566744     2.0741089606     0.8233968852
Bq         0.2248771026    -2.8750257412     0.2660838162
Bq         0.2248771026    -2.8750257412     0.2660838162
Bq         0.2064218499    -2.3801122710     0.3347865140
Bq         0.2064218499    -2.3801122710     0.3347865140
Bq         0.1879665972    -1.8851988008     0.4034892118
Bq         0.1879665972    -1.8851988008     0.4034892118
Bq         0.1695113445    -1.3902853306     0.4721919096
Bq         0.1695113445    -1.3902853306     0.4721919096
Bq         0.1510560919    -0.8953718605     0.5408946074
Bq         0.1510560919    -0.8953718605     0.5408946074
Bq         0.1326008392    -0.4004583903     0.6095973052
Bq         0.1326008392    -0.4004583903     0.6095973052
Bq         0.1141455865     0.0944550799     0.6783000030
Bq         0.1141455865     0.0944550799     0.6783000030
Bq         0.0956903338     0.5893685501     0.7470027008
Bq         0.0956903338     0.5893685501     0.7470027008
Bq         0.0772350811     1.0842820203     0.8157053986
Bq         0.0772350811     1.0842820203     0.8157053986
Bq         0.0587798285     1.5791954904     0.8844080963
Bq         0.0587798285     1.5791954904     0.8844080963
Bq         0.0403245758     2.0741089606     0.9531107941
Bq         0.0403245758     2.0741089606     0.9531107941
Bq         0.7077583528    -2.8750257412     0.3957977251
Bq         0.7077583528    -2.8750257412     0.3957977251
Bq         0.6893031001    -2.3801122710     0.4645004229
Bq         0.6893031001    -2.3801122710     0.4645004229
Bq         0.6708478474    -1.8851988008     0.5332031207
Bq         0.6708478474    -1.8851988008     0.5332031207
Bq         0.6523925948    -1.3902853306     0.6019058185
Bq         0.6523925948    -1.3902853306     0.6019058185
Bq         0.6339373421    -0.8953718605     0.6706085163
Bq         0.6339373421    -0.8953718605     0.6706085163
Bq         0.6154820894    -0.4004583903     0.7393112141
Bq         0.6154820894    -0.4004583903     0.7393112141
Bq         0.5970268367     0.0944550799     0.8080139119
Bq         0.5970268367     0.0944550799     0.8080139119
Bq         0.5785715841     0.5893685501     0.8767166097
Bq         0.5785715841     0.5893685501     0.8767166097
Bq         0.5601163314     1.0842820203     0.9454193075
Bq         0.5601163314     1.0842820203     0.9454193075
Bq         0.5416610787     1.5791954904     1.0141220053
Bq         0.5416610787     1.5791954904     1.0141220053
Bq         0.5232058260     2.0741089606     1.0828247031
Bq         0.5232058260     2.0741089606     1.0828247031
Bq         1.1906396030    -2.8750257412     0.5255116341
Bq         1.1906396030    -2.8750257412     0.5255116341
Bq         1.1721843504    -2.3801122710     0.5942143319
Bq         1.1721843504    -2.3801122710     0.5942143319
Bq         1.1537290977    -1.8851988008     0.6629170297
Bq         1.1537290977    -1.8851988008     0.6629170297
Bq         1.1352738450    -1.3902853306     0.7316197275
Bq         1.1352738450    -1.3902853306     0.7316197275
Bq         1.1168185923    -0.8953718605     0.8003224253
Bq         1.1168185923    -0.8953718605     0.8003224253
Bq         1.0983633396    -0.4004583903     0.8690251231
Bq         1.0983633396    -0.4004583903     0.8690251231
Bq         1.0799080870     0.0944550799     0.9377278209
Bq         1.0799080870     0.0944550799     0.9377278209
Bq         1.0614528343     0.5893685501     1.0064305186
Bq         1.0614528343     0.5893685501     1.0064305186
Bq         1.0429975816     1.0842820203     1.0751332164
Bq         1.0429975816     1.0842820203     1.0751332164
Bq         1.0245423289     1.5791954904     1.1438359142
Bq         1.0245423289     1.5791954904     1.1438359142
Bq         1.0060870763     2.0741089606     1.2125386120
Bq         1.0060870763     2.0741089606     1.2125386120
Bq         1.6735208533    -2.8750257412     0.6552255430
Bq         1.6735208533    -2.8750257412     0.6552255430
Bq         1.6550656006    -2.3801122710     0.7239282408
Bq         1.6550656006    -2.3801122710     0.7239282408
Bq         1.6366103479    -1.8851988008     0.7926309386
Bq         1.6366103479    -1.8851988008     0.7926309386
Bq         1.6181550952    -1.3902853306     0.8613336364
Bq         1.6181550952    -1.3902853306     0.8613336364
Bq         1.5996998426    -0.8953718605     0.9300363342
Bq         1.5996998426    -0.8953718605     0.9300363342
Bq         1.5812445899    -0.4004583903     0.9987390320
Bq         1.5812445899    -0.4004583903     0.9987390320
Bq         1.5627893372     0.0944550799     1.0674417298
Bq         1.5627893372     0.0944550799     1.0674417298
Bq         1.5443340845     0.5893685501     1.1361444276
Bq         1.5443340845     0.5893685501     1.1361444276
Bq         1.5258788318     1.0842820203     1.2048471254
Bq         1.5258788318     1.0842820203     1.2048471254
Bq         1.5074235792     1.5791954904     1.2735498232
Bq         1.5074235792     1.5791954904     1.2735498232
Bq         1.4889683265     2.0741089606     1.3422525210
Bq         1.4889683265     2.0741089606     1.3422525210
Bq         2.1564021035    -2.8750257412     0.7849394520
Bq         2.1564021035    -2.8750257412     0.7849394520
Bq         2.1379468508    -2.3801122710     0.8536421498
Bq         2.1379468508    -2.3801122710     0.8536421498
Bq         2.1194915981    -1.8851988008     0.9223448476
Bq         2.1194915981    -1.8851988008     0.9223448476
Bq         2.1010363455    -1.3902853306     0.9910475454
Bq         2.1010363455    -1.3902853306     0.9910475454
Bq         2.0825810928    -0.8953718605     1.0597502432
Bq         2.0825810928    -0.8953718605     1.0597502432
Bq         2.0641258401    -0.4004583903     1.1284529409
Bq         2.0641258401    -0.4004583903     1.1284529409
Bq         2.0456705874     0.0944550799     1.1971556387
Bq         2.0456705874     0.0944550799     1.1971556387
Bq         2.0272153348     0.5893685501     1.2658583365
Bq         2.0272153348     0.5893685501     1.2658583365
Bq         2.0087600821     1.0842820203     1.3345610343
Bq         2.0087600821     1.0842820203     1.3345610343
Bq         1.9903048294     1.5791954904     1.4032637321
Bq         1.9903048294     1.5791954904     1.4032637321
Bq         1.9718495767     2.0741089606     1.4719664299
Bq         1.9718495767     2.0741089606     1.4719664299
Bq         2.6392833537    -2.8750257412     0.9146533609
Bq         2.6392833537    -2.8750257412     0.9146533609
Bq         2.6208281010    -2.3801122710     0.9833560587
Bq         2.6208281010    -2.3801122710     0.9833560587
Bq         2.6023728484    -1.8851988008     1.0520587565
Bq         2.6023728484    -1.8851988008     1.0520587565
Bq         2.5839175957    -1.3902853306     1.1207614543
Bq         2.5839175957    -1.3902853306     1.1207614543
Bq         2.5654623430    -0.8953718605     1.1894641521
Bq         2.5654623430    -0.8953718605     1.1894641521
Bq         2.5470070903    -0.4004583903     1.2581668499
Bq         2.5470070903    -0.4004583903     1.2581668499
Bq         2.5285518377     0.0944550799     1.3268695477
Bq         2.5285518377     0.0944550799     1.3268695477
Bq         2.5100965850     0.5893685501     1.3955722455
Bq         2.5100965850     0.5893685501     1.3955722455
Bq         2.4916413323     1.0842820203     1.4642749433
Bq         2.4916413323     1.0842820203     1.4642749433
Bq         2.4731860796     1.5791954904     1.5329776411
Bq         2.4731860796     1.5791954904     1.5329776411
Bq         2.4547308270     2.0741089606     1.6016803389
Bq         2.4547308270     2.0741089606     1.6016803389
Bq         3.1221646040    -2.8750257412     1.0443672699
Bq         3.1221646040    -2.8750257412     1.0443672699
Bq         3.1037093513    -2.3801122710     1.1130699677
Bq         3.1037093513    -2.3801122710     1.1130699677
Bq         3.0852540986    -1.8851988008     1.1817726655
Bq         3.0852540986    -1.8851988008     1.1817726655
Bq         3.0667988459    -1.3902853306     1.2504753632
Bq         3.0667988459    -1.3902853306     1.2504753632
Bq         3.0483435932    -0.8953718605     1.3191780610
Bq         3.0483435932    -0.8953718605     1.3191780610
Bq         3.0298883406    -0.4004583903     1.3878807588
Bq         3.0298883406    -0.4004583903     1.3878807588
Bq         3.0114330879     0.0944550799     1.4565834566
Bq         3.0114330879     0.0944550799     1.4565834566
Bq         2.9929778352     0.5893685501     1.5252861544
Bq         2.9929778352     0.5893685501     1.5252861544
Bq         2.9745225825     1.0842820203     1.5939888522
Bq         2.9745225825     1.0842820203     1.5939888522
Bq         2.9560673299     1.5791954904     1.6626915500
Bq         2.9560673299     1.5791954904     1.6626915500
Bq         2.9376120772     2.0741089606     1.7313942478
Bq         2.9376120772     2.0741089606     1.7313942478
Bq         3.6050458542    -2.8750257412     1.1740811788
Bq         3.6050458542    -2.8750257412     1.1740811788
Bq         3.5865906015    -2.3801122710     1.2427838766
Bq         3.5865906015    -2.3801122710     1.2427838766
Bq         3.5681353488    -1.8851988008     1.3114865744
Bq         3.5681353488    -1.8851988008     1.3114865744
Bq         3.5496800962    -1.3902853306     1.3801892722
Bq         3.5496800962    -1.3902853306     1.3801892722
Bq         3.5312248435    -0.8953718605     1.4488919700
Bq         3.5312248435    -0.8953718605     1.4488919700
Bq         3.5127695908    -0.4004583903     1.5175946678
Bq         3.5127695908    -0.4004583903     1.5175946678
Bq         3.4943143381     0.0944550799     1.5862973656
Bq         3.4943143381     0.0944550799     1.5862973656
Bq         3.4758590855     0.5893685501     1.6550000634
Bq         3.4758590855     0.5893685501     1.6550000634
Bq         3.4574038328     1.0842820203     1.7237027612
Bq         3.4574038328     1.0842820203     1.7237027612
Bq         3.4389485801     1.5791954904     1.7924054590
Bq         3.4389485801     1.5791954904     1.7924054590
Bq         3.4204933274     2.0741089606     1.8611081568
Bq         3.4204933274     2.0741089606     1.8611081568
Bq         4.0879271044    -2.8750257412     1.3037950878

1
2
3
4
5
6
7
8
9
10
11
12
13
14
15
16
17
18
19
20
21
22
23
24
25
26
27
28
29
30
31
32
33
34
35
36
37
38
39
40
41
42
43
44
45
46
47
48
49
50
51
52
53
54
55
56
57
58
59
60
61
62
63
64
65
66
67
68
69
70
71
72
73
74
75
76
77
78
79
80
81
82
83
84
85
86
87
88
89
90
91
92
93
94
95
96
97
98
99
100
101
102
103
104
105
106
107
108
109
110
111
112
113
114
115
116
117
118
119
120
121
122
123
124
125
126
127
128
129
130
131
132
133
134
135
136
137
138
139
140
141
142
143
144
145
146
147
148
149
150
151
152
153
154
155
156
157
158
159
160
161
162
163
164
165
166
167
168
169
170
171
172
173
174
175
176
177
178
179
180
181
182
183
184
185
186
187
188
189
190
191
192
193
194
195
196
197
198
199
200
201
202
203
204
205
206
207
208
209
210
211
212
213
214
215
216
217
218
219
220
221
222
223
224
225
226
227
228
229
230
231
232
233
234
235
236

