%nproc=8
%mem=1000MB
# rb3lyp/6-311+g** NMR geom=connectivity

Title

0 1
C    -4.0500558   -0.5771862    0.8136712
H    -5.0263804   -1.0082727    1.0024760
C    -3.9381552    0.6617804    0.2400876
H    -4.8252424    1.2338890   -0.0111295
C    -2.6768410    1.2433246    0.0057578
C    -1.4974121    0.5051527    0.2848253
C    -1.6508332   -0.7338728    0.9404026
H    -0.7713646   -1.2730967    1.2633753
C    -2.8898548   -1.2624035    1.1994307
H    -2.9683706   -2.2124563    1.7152676
C    -2.5773185    2.5963696   -0.4192930
H    -3.4870728    3.1412239   -0.6474055
C    -1.3741895    3.2147896   -0.4364030
H    -1.2997315    4.2742019   -0.6578144
C    -0.1719488    2.4994090   -0.1734588
C    -0.2043917    1.1018437    0.0192689
C     1.0513491    3.2042560   -0.0676222
H     1.0427344    4.2819499   -0.1896997
C     2.1942091    2.5487446    0.2579577
H     3.1168527    3.0912848    0.4334727
C     2.2216473    1.1336562    0.2934990
C     1.0486931    0.3945528    0.0302412
C     3.4483363    0.4614633    0.5573939
H     4.3095794    1.0606054    0.8334846
C     3.5427346   -0.8855926    0.4749463
H     4.4731467   -1.3939704    0.7038822
C     2.4490052   -1.6474447   -0.0196319
C     1.2150704   -1.0057258   -0.3013573
C     0.2531113   -1.7434440   -1.0216591
H    -0.6541356   -1.2535051   -1.3462847
C     0.4494193   -3.0628597   -1.3413779
H    -0.3083162   -3.5944309   -1.9054060
C     1.6251726   -3.7207967   -0.9552541
H     1.7670048   -4.7687404   -1.1927019
C     2.6109872   -3.0144177   -0.3183050
H     3.5525612   -3.4902813   -0.0646367
Bq         1.0232596833     1.8137437167     0.0599809667
Bq        -1.6273822455    -0.6291883319     0.9062553734
Bq        -1.5984303394    -0.6390153020     0.7086061442
Bq        -1.6129062924    -0.6341018169     0.8074307588
Bq        -1.6238215758    -0.1297922550     0.8819473496
Bq        -1.5948696697    -0.1396192251     0.6842981204
Bq        -1.6093456227    -0.1347057400     0.7831227350
Bq        -1.6202609061     0.3696038219     0.8576393257
Bq        -1.5913090000     0.3597768518     0.6599900966
Bq        -1.6057849530     0.3646903368     0.7588147112
Bq        -1.6167002364     0.8689998988     0.8333313019
Bq        -1.5877483303     0.8591729286     0.6356820727
Bq        -1.6022242833     0.8640864137     0.7345066873
Bq        -1.6131395667     1.3683959757     0.8090232781
Bq        -1.5841876606     1.3585690055     0.6113740489
Bq        -1.5986636136     1.3634824906     0.7101986635
Bq        -1.6095788969     1.8677920526     0.7847152542
Bq        -1.5806269909     1.8579650824     0.5870660251
Bq        -1.5951029439     1.8628785675     0.6858906397
Bq        -1.6060182272     2.3671881295     0.7604072304
Bq        -1.5770663211     2.3573611593     0.5627580012
Bq        -1.5915422742     2.3622746444     0.6615826158
Bq        -1.6024575575     2.8665842063     0.7360992066
Bq        -1.5735056514     2.8567572362     0.5384499774
Bq        -1.5879816045     2.8616707213     0.6372745920
Bq        -1.5988968878     3.3659802832     0.7117911828
Bq        -1.5699449817     3.3561533131     0.5141419536
Bq        -1.5844209348     3.3610667981     0.6129665682
Bq        -1.5953362181     3.8653763601     0.6874831589
Bq        -1.5663843120     3.8555493900     0.4898339297
Bq        -1.5808602651     3.8604628750     0.5886585443
Bq        -1.5917755484     4.3647724370     0.6631751351
Bq        -1.5628236423     4.3549454668     0.4655259059
Bq        -1.5772995954     4.3598589519     0.5643505205
Bq        -1.1326616261    -0.6291883319     0.9787226680
Bq        -1.1037097200    -0.6390153020     0.7810734388
Bq        -1.1181856731    -0.6341018169     0.8798980534
Bq        -1.1291009564    -0.1297922550     0.9544146441
Bq        -1.1001490503    -0.1396192251     0.7567654150
Bq        -1.1146250034    -0.1347057400     0.8555900296
Bq        -1.1255402867     0.3696038219     0.9301066203
Bq        -1.0965883806     0.3597768518     0.7324573911
Bq        -1.1110643337     0.3646903368     0.8312820057
Bq        -1.1219796170     0.8689998988     0.9057985965
Bq        -1.0930277109     0.8591729286     0.7081493673
Bq        -1.1075036640     0.8640864137     0.8069739819
Bq        -1.1184189473     1.3683959757     0.8814905727
Bq        -1.0894670412     1.3585690055     0.6838413435
Bq        -1.1039429942     1.3634824906     0.7826659581
Bq        -1.1148582776     1.8677920526     0.8571825488
Bq        -1.0859063715     1.8579650824     0.6595333196
Bq        -1.1003823245     1.8628785675     0.7583579342
Bq        -1.1112976079     2.3671881295     0.8328745250
Bq        -1.0823457018     2.3573611593     0.6352252958
Bq        -1.0968216548     2.3622746444     0.7340499104
Bq        -1.1077369382     2.8665842063     0.8085665012
Bq        -1.0787850321     2.8567572362     0.6109172720
Bq        -1.0932609851     2.8616707213     0.7097418866
Bq        -1.1041762685     3.3659802832     0.7842584773
Bq        -1.0752243624     3.3561533131     0.5866092482
Bq        -1.0897003154     3.3610667981     0.6854338627
Bq        -1.1006155988     3.8653763601     0.7599504535
Bq        -1.0716636927     3.8555493900     0.5623012243
Bq        -1.0861396457     3.8604628750     0.6611258389
Bq        -1.0970549290     4.3647724370     0.7356424297
Bq        -1.0681030230     4.3549454668     0.5379932005
Bq        -1.0825789760     4.3598589519     0.6368178151
Bq        -0.6379410068    -0.6291883319     1.0511899626
Bq        -0.6089891007    -0.6390153020     0.8535407334
Bq        -0.6234650537    -0.6341018169     0.9523653480
Bq        -0.6343803371    -0.1297922550     1.0268819387
Bq        -0.6054284310    -0.1396192251     0.8292327095
Bq        -0.6199043840    -0.1347057400     0.9280573241
Bq        -0.6308196674     0.3696038219     1.0025739149
Bq        -0.6018677613     0.3597768518     0.8049246857
Bq        -0.6163437143     0.3646903368     0.9037493003
Bq        -0.6272589976     0.8689998988     0.9782658911
Bq        -0.5983070916     0.8591729286     0.7806166619
Bq        -0.6127830446     0.8640864137     0.8794412765
Bq        -0.6236983279     1.3683959757     0.9539578672
Bq        -0.5947464218     1.3585690055     0.7563086381
Bq        -0.6092223749     1.3634824906     0.8551332526
Bq        -0.6201376582     1.8677920526     0.9296498434
Bq        -0.5911857521     1.8579650824     0.7320006142
Bq        -0.6056617052     1.8628785675     0.8308252288
Bq        -0.6165769885     2.3671881295     0.9053418196
Bq        -0.5876250824     2.3573611593     0.7076925904
Bq        -0.6021010355     2.3622746444     0.8065172050
Bq        -0.6130163188     2.8665842063     0.8810337957
Bq        -0.5840644127     2.8567572362     0.6833845666
Bq        -0.5985403658     2.8616707213     0.7822091811
Bq        -0.6094556491     3.3659802832     0.8567257719
Bq        -0.5805037430     3.3561533131     0.6590765427
Bq        -0.5949796961     3.3610667981     0.7579011573
Bq        -0.6058949794     3.8653763601     0.8324177481
Bq        -0.5769430733     3.8555493900     0.6347685189
Bq        -0.5914190263     3.8604628750     0.7335931335
Bq        -0.6023343097     4.3647724370     0.8081097242
Bq        -0.5733824036     4.3549454668     0.6104604951
Bq        -0.5878583566     4.3598589519     0.7092851096
Bq        -0.1432203874    -0.6291883319     1.1236572571
Bq        -0.1142684813    -0.6390153020     0.9260080280
Bq        -0.1287444344    -0.6341018169     1.0248326425
Bq        -0.1396597177    -0.1297922550     1.0993492333
Bq        -0.1107078116    -0.1396192251     0.9017000041
Bq        -0.1251837647    -0.1347057400     1.0005246187
Bq        -0.1360990480     0.3696038219     1.0750412095
Bq        -0.1071471419     0.3597768518     0.8773919803
Bq        -0.1216230950     0.3646903368     0.9762165949
Bq        -0.1325383783     0.8689998988     1.0507331856
Bq        -0.1035864722     0.8591729286     0.8530839565
Bq        -0.1180624252     0.8640864137     0.9519085710
Bq        -0.1289777086     1.3683959757     1.0264251618
Bq        -0.1000258025     1.3585690055     0.8287759326
Bq        -0.1145017555     1.3634824906     0.9276005472
Bq        -0.1254170389     1.8677920526     1.0021171380
Bq        -0.0964651328     1.8579650824     0.8044679088
Bq        -0.1109410858     1.8628785675     0.9032925234
Bq        -0.1218563692     2.3671881295     0.9778091141
Bq        -0.0929044631     2.3573611593     0.7801598850
Bq        -0.1073804161     2.3622746444     0.8789844995
Bq        -0.1182956995     2.8665842063     0.9535010903
Bq        -0.0893437934     2.8567572362     0.7558518611
Bq        -0.1038197464     2.8616707213     0.8546764757
Bq        -0.1147350297     3.3659802832     0.9291930665
Bq        -0.0857831237     3.3561533131     0.7315438373
Bq        -0.1002590767     3.3610667981     0.8303684519
Bq        -0.1111743600     3.8653763601     0.9048850426
Bq        -0.0822224539     3.8555493900     0.7072358135
Bq        -0.0966984070     3.8604628750     0.8060604280
Bq        -0.1076136903     4.3647724370     0.8805770188
Bq        -0.0786617842     4.3549454668     0.6829277896
Bq        -0.0931377373     4.3598589519     0.7817524042
Bq         0.3515002319    -0.6291883319     1.1961245517
Bq         0.3804521380    -0.6390153020     0.9984753225
Bq         0.3659761850    -0.6341018169     1.0972999371
Bq         0.3550609017    -0.1297922550     1.1718165279
Bq         0.3840128077    -0.1396192251     0.9741672987
Bq         0.3695368547    -0.1347057400     1.0729919133
Bq         0.3586215714     0.3696038219     1.1475085040
Bq         0.3875734775     0.3597768518     0.9498592749
Bq         0.3730975244     0.3646903368     1.0486838894
Bq         0.3621822411     0.8689998988     1.1232004802
Bq         0.3911341472     0.8591729286     0.9255512510
Bq         0.3766581941     0.8640864137     1.0243758656
Bq         0.3657429108     1.3683959757     1.0988924564
Bq         0.3946948169     1.3585690055     0.9012432272
Bq         0.3802188638     1.3634824906     1.0000678418
Bq         0.3693035805     1.8677920526     1.0745844325
Bq         0.3982554866     1.8579650824     0.8769352034
Bq         0.3837795335     1.8628785675     0.9757598179
Bq         0.3728642502     2.3671881295     1.0502764087
Bq         0.4018161563     2.3573611593     0.8526271795
Bq         0.3873402032     2.3622746444     0.9514517941
Bq         0.3764249199     2.8665842063     1.0259683849
Bq         0.4053768260     2.8567572362     0.8283191557
Bq         0.3909008729     2.8616707213     0.9271437703
Bq         0.3799855896     3.3659802832     1.0016603610
Bq         0.4089374957     3.3561533131     0.8040111319
Bq         0.3944615427     3.3610667981     0.9028357464
Bq         0.3835462593     3.8653763601     0.9773523372
Bq         0.4124981654     3.8555493900     0.7797031080
Bq         0.3980222124     3.8604628750     0.8785277226
Bq         0.3871069290     4.3647724370     0.9530443134
Bq         0.4160588351     4.3549454668     0.7553950842
Bq         0.4015828821     4.3598589519     0.8542196988
Bq         0.8462208513    -0.6291883319     1.2685918463
Bq         0.8751727574    -0.6390153020     1.0709426171
Bq         0.8606968043    -0.6341018169     1.1697672317
Bq         0.8497815210    -0.1297922550     1.2442838224
Bq         0.8787334271    -0.1396192251     1.0466345933
Bq         0.8642574741    -0.1347057400     1.1454592078
Bq         0.8533421907     0.3696038219     1.2199757986
Bq         0.8822940968     0.3597768518     1.0223265694
Bq         0.8678181438     0.3646903368     1.1211511840
Bq         0.8569028604     0.8689998988     1.1956677748
Bq         0.8858547665     0.8591729286     0.9980185456
Bq         0.8713788135     0.8640864137     1.0968431602
Bq         0.8604635301     1.3683959757     1.1713597509
Bq         0.8894154362     1.3585690055     0.9737105218
Bq         0.8749394832     1.3634824906     1.0725351363
Bq         0.8640241998     1.8677920526     1.1470517271
Bq         0.8929761059     1.8579650824     0.9494024979
Bq         0.8785001529     1.8628785675     1.0482271125
Bq         0.8675848696     2.3671881295     1.1227437033
Bq         0.8965367756     2.3573611593     0.9250944741
Bq         0.8820608226     2.3622746444     1.0239190887
Bq         0.8711455393     2.8665842063     1.0984356794
Bq         0.9000974454     2.8567572362     0.9007864503
Bq         0.8856214923     2.8616707213     0.9996110648
Bq         0.8747062090     3.3659802832     1.0741276556
Bq         0.9036581151     3.3561533131     0.8764784264
Bq         0.8891821620     3.3610667981     0.9753030410
Bq         0.8782668787     3.8653763601     1.0498196318
Bq         0.9072187848     3.8555493900     0.8521704026
Bq         0.8927428317     3.8604628750     0.9509950172
Bq         0.8818275484     4.3647724370     1.0255116079
Bq         0.9107794545     4.3549454668     0.8278623788
Bq         0.8963035014     4.3598589519     0.9266869934
Bq         1.3409414707    -0.6291883319     1.3410591408

1
2
3
4
5
6
7
8
9
10
11
12
13
14
15
16
17
18
19
20
21
22
23
24
25
26
27
28
29
30
31
32
33
34
35
36
37
38
39
40
41
42
43
44
45
46
47
48
49
50
51
52
53
54
55
56
57
58
59
60
61
62
63
64
65
66
67
68
69
70
71
72
73
74
75
76
77
78
79
80
81
82
83
84
85
86
87
88
89
90
91
92
93
94
95
96
97
98
99
100
101
102
103
104
105
106
107
108
109
110
111
112
113
114
115
116
117
118
119
120
121
122
123
124
125
126
127
128
129
130
131
132
133
134
135
136
137
138
139
140
141
142
143
144
145
146
147
148
149
150
151
152
153
154
155
156
157
158
159
160
161
162
163
164
165
166
167
168
169
170
171
172
173
174
175
176
177
178
179
180
181
182
183
184
185
186
187
188
189
190
191
192
193
194
195
196
197
198
199
200
201
202
203
204
205
206
207
208
209
210
211
212
213
214
215
216
217
218
219
220
221
222
223
224
225
226
227
228
229
230
231
232
233
234
235
236

