%nproc=8
%mem=1000MB
# rb3lyp/6-311+g** NMR geom=connectivity

Title

0 1
C    -4.0500558   -0.5771862    0.8136712
H    -5.0263804   -1.0082727    1.0024760
C    -3.9381552    0.6617804    0.2400876
H    -4.8252424    1.2338890   -0.0111295
C    -2.6768410    1.2433246    0.0057578
C    -1.4974121    0.5051527    0.2848253
C    -1.6508332   -0.7338728    0.9404026
H    -0.7713646   -1.2730967    1.2633753
C    -2.8898548   -1.2624035    1.1994307
H    -2.9683706   -2.2124563    1.7152676
C    -2.5773185    2.5963696   -0.4192930
H    -3.4870728    3.1412239   -0.6474055
C    -1.3741895    3.2147896   -0.4364030
H    -1.2997315    4.2742019   -0.6578144
C    -0.1719488    2.4994090   -0.1734588
C    -0.2043917    1.1018437    0.0192689
C     1.0513491    3.2042560   -0.0676222
H     1.0427344    4.2819499   -0.1896997
C     2.1942091    2.5487446    0.2579577
H     3.1168527    3.0912848    0.4334727
C     2.2216473    1.1336562    0.2934990
C     1.0486931    0.3945528    0.0302412
C     3.4483363    0.4614633    0.5573939
H     4.3095794    1.0606054    0.8334846
C     3.5427346   -0.8855926    0.4749463
H     4.4731467   -1.3939704    0.7038822
C     2.4490052   -1.6474447   -0.0196319
C     1.2150704   -1.0057258   -0.3013573
C     0.2531113   -1.7434440   -1.0216591
H    -0.6541356   -1.2535051   -1.3462847
C     0.4494193   -3.0628597   -1.3413779
H    -0.3083162   -3.5944309   -1.9054060
C     1.6251726   -3.7207967   -0.9552541
H     1.7670048   -4.7687404   -1.1927019
C     2.6109872   -3.0144177   -0.3183050
H     3.5525612   -3.4902813   -0.0646367
Bq        -0.7916873991    -1.8436584467     2.5761244401
Bq        -0.7908327377    -1.3934014834     2.3587125350
Bq        -0.7908327377    -1.3934014834     2.3587125350
Bq        -0.7899780763    -0.9431445200     2.1413006298
Bq        -0.7899780763    -0.9431445200     2.1413006298
Bq        -0.7891234150    -0.4928875567     1.9238887247
Bq        -0.7891234150    -0.4928875567     1.9238887247
Bq        -0.7882687536    -0.0426305933     1.7064768195
Bq        -0.7882687536    -0.0426305933     1.7064768195
Bq        -0.7874140922     0.4076263700     1.4890649143
Bq        -0.7874140922     0.4076263700     1.4890649143
Bq        -0.7865594308     0.8578833334     1.2716530092
Bq        -0.7865594308     0.8578833334     1.2716530092
Bq        -0.7857047695     1.3081402968     1.0542411040
Bq        -0.7857047695     1.3081402968     1.0542411040
Bq        -0.7848501081     1.7583972601     0.8368291988
Bq        -0.7848501081     1.7583972601     0.8368291988
Bq        -0.7839954467     2.2086542235     0.6194172937
Bq        -0.7839954467     2.2086542235     0.6194172937
Bq        -0.7831407853     2.6589111868     0.4020053885
Bq        -0.7831407853     2.6589111868     0.4020053885
Bq        -0.2916912624    -1.8436584467     2.5780899599
Bq        -0.2916912624    -1.8436584467     2.5780899599
Bq        -0.2908366010    -1.3934014834     2.3606780547
Bq        -0.2908366010    -1.3934014834     2.3606780547
Bq        -0.2899819396    -0.9431445200     2.1432661495
Bq        -0.2899819396    -0.9431445200     2.1432661495
Bq        -0.2891272782    -0.4928875567     1.9258542444
Bq        -0.2891272782    -0.4928875567     1.9258542444
Bq        -0.2882726169    -0.0426305933     1.7084423392
Bq        -0.2882726169    -0.0426305933     1.7084423392
Bq        -0.2874179555     0.4076263700     1.4910304340
Bq        -0.2874179555     0.4076263700     1.4910304340
Bq        -0.2865632941     0.8578833334     1.2736185289
Bq        -0.2865632941     0.8578833334     1.2736185289
Bq        -0.2857086327     1.3081402968     1.0562066237
Bq        -0.2857086327     1.3081402968     1.0562066237
Bq        -0.2848539714     1.7583972601     0.8387947186
Bq        -0.2848539714     1.7583972601     0.8387947186
Bq        -0.2839993100     2.2086542235     0.6213828134
Bq        -0.2839993100     2.2086542235     0.6213828134
Bq        -0.2831446486     2.6589111868     0.4039709082
Bq        -0.2831446486     2.6589111868     0.4039709082

1
2
3
4
5
6
7
8
9
10
11
12
13
14
15
16
17
18
19
20
21
22
23
24
25
26
27
28
29
30
31
32
33
34
35
36
37
38
39
40
41
42
43
44
45
46
47
48
49
50
51
52
53
54
55
56
57
58
59
60
61
62
63
64
65
66
67
68
69
70
71
72
73
74
75
76
77
78
79

