%nproc=8
%mem=1000MB
# rb3lyp/6-311+g** NMR geom=connectivity

Title

0 1
C    -4.0500558   -0.5771862    0.8136712
H    -5.0263804   -1.0082727    1.0024760
C    -3.9381552    0.6617804    0.2400876
H    -4.8252424    1.2338890   -0.0111295
C    -2.6768410    1.2433246    0.0057578
C    -1.4974121    0.5051527    0.2848253
C    -1.6508332   -0.7338728    0.9404026
H    -0.7713646   -1.2730967    1.2633753
C    -2.8898548   -1.2624035    1.1994307
H    -2.9683706   -2.2124563    1.7152676
C    -2.5773185    2.5963696   -0.4192930
H    -3.4870728    3.1412239   -0.6474055
C    -1.3741895    3.2147896   -0.4364030
H    -1.2997315    4.2742019   -0.6578144
C    -0.1719488    2.4994090   -0.1734588
C    -0.2043917    1.1018437    0.0192689
C     1.0513491    3.2042560   -0.0676222
H     1.0427344    4.2819499   -0.1896997
C     2.1942091    2.5487446    0.2579577
H     3.1168527    3.0912848    0.4334727
C     2.2216473    1.1336562    0.2934990
C     1.0486931    0.3945528    0.0302412
C     3.4483363    0.4614633    0.5573939
H     4.3095794    1.0606054    0.8334846
C     3.5427346   -0.8855926    0.4749463
H     4.4731467   -1.3939704    0.7038822
C     2.4490052   -1.6474447   -0.0196319
C     1.2150704   -1.0057258   -0.3013573
C     0.2531113   -1.7434440   -1.0216591
H    -0.6541356   -1.2535051   -1.3462847
C     0.4494193   -3.0628597   -1.3413779
H    -0.3083162   -3.5944309   -1.9054060
C     1.6251726   -3.7207967   -0.9552541
H     1.7670048   -4.7687404   -1.1927019
C     2.6109872   -3.0144177   -0.3183050
H     3.5525612   -3.4902813   -0.0646367
Bq        -1.2961341705     2.1625162136     0.7147862021
Bq        -1.1513746400     2.1133813628    -0.2734599437
Bq        -1.2237544052     2.1379487882     0.2206631292
Bq        -1.2375182243     2.2427414887     0.3146261390
Bq        -1.2085663183     2.2329145185     0.1169769098
Bq        -1.2519941774     2.2476549738     0.4134507536
Bq        -1.1940903652     2.2280010334     0.0181522952
Bq        -1.2664701304     2.2525684588     0.5122753682
Bq        -1.1796144122     2.2230875483    -0.0806723193
Bq        -1.2809460835     2.2574819439     0.6110999828
Bq        -1.1651384591     2.2181740633    -0.1794969339
Bq        -1.2954220365     2.2623954290     0.7099245973
Bq        -1.1506625061     2.2132605782    -0.2783215485
Bq        -1.2230422713     2.2378280036     0.2158015244
Bq        -1.2368060904     2.3426207040     0.3097645342
Bq        -1.2078541843     2.3327937339     0.1121153051
Bq        -1.2512820434     2.3475341891     0.4085891488
Bq        -1.1933782313     2.3278802488     0.0132906905
Bq        -1.2657579965     2.3524476742     0.5074137634
Bq        -1.1789022782     2.3229667637    -0.0855339241
Bq        -1.2802339495     2.3573611593     0.6062383780
Bq        -1.1644263252     2.3180532786    -0.1843585387
Bq        -1.2947099026     2.3622746444     0.7050629926
Bq        -1.1499503721     2.3131397936    -0.2831831533
Bq        -1.2223301374     2.3377072190     0.2109399197
Bq        -1.2360939565     2.4424999194     0.3049029295
Bq        -1.2071420504     2.4326729493     0.1072537003
Bq        -1.2505699095     2.4474134045     0.4037275441
Bq        -1.1926660973     2.4277594642     0.0084290857
Bq        -1.2650458625     2.4523268896     0.5025521586
Bq        -1.1781901443     2.4228459791    -0.0903955289
Bq        -1.2795218156     2.4572403747     0.6013767732
Bq        -1.1637141912     2.4179324940    -0.1892201435
Bq        -1.2939977686     2.4621538598     0.7002013878
Bq        -1.1492382382     2.4130190089    -0.2880447580
Bq        -1.2216180034     2.4375864343     0.2060783149
Bq        -1.2353818225     2.5423791348     0.3000413247
Bq        -1.2064299164     2.5325521646     0.1023920955
Bq        -1.2498577756     2.5472926199     0.3988659393
Bq        -1.1919539634     2.5276386796     0.0035674809
Bq        -1.2643337286     2.5522061050     0.4976905539
Bq        -1.1774780103     2.5227251945    -0.0952571336
Bq        -1.2788096816     2.5571195900     0.5965151685
Bq        -1.1630020573     2.5178117094    -0.1940817482
Bq        -1.2932856347     2.5620330751     0.6953397830
Bq        -1.1485261042     2.5128982243    -0.2929063628
Bq        -1.2209058695     2.5374656497     0.2012167101
Bq        -1.2346696886     2.6422583502     0.2951797199
Bq        -1.2057177825     2.6324313800     0.0975304908
Bq        -1.2491456416     2.6471718353     0.3940043345
Bq        -1.1912418294     2.6275178949    -0.0012941238
Bq        -1.2636215947     2.6520853203     0.4928289491
Bq        -1.1767658764     2.6226044098    -0.1001187384
Bq        -1.2780975477     2.6569988054     0.5916535637
Bq        -1.1622899234     2.6176909248    -0.1989433530
Bq        -1.2925735008     2.6619122905     0.6904781783
Bq        -1.1478139703     2.6127774397    -0.2977679676
Bq        -1.2201937355     2.6373448651     0.1963551054
Bq        -1.2339575546     2.7421375656     0.2903181152
Bq        -1.2050056485     2.7323105954     0.0926688860
Bq        -1.2484335077     2.7470510506     0.3891427298
Bq        -1.1905296955     2.7273971103    -0.0061557286
Bq        -1.2629094607     2.7519645357     0.4879673443
Bq        -1.1760537425     2.7224836252    -0.1049803432
Bq        -1.2773854138     2.7568780208     0.5867919589
Bq        -1.1615777894     2.7175701401    -0.2038049578
Bq        -1.2918613668     2.7617915059     0.6856165735
Bq        -1.1471018364     2.7126566551    -0.3026295723
Bq        -1.2194816016     2.7372240805     0.1914935006
Bq        -1.2332454207     2.8420167809     0.2854565104
Bq        -1.2042935146     2.8321898108     0.0878072812
Bq        -1.2477213737     2.8469302660     0.3842811250
Bq        -1.1898175616     2.8272763257    -0.0110173334
Bq        -1.2621973268     2.8518437511     0.4831057396
Bq        -1.1753416085     2.8223628406    -0.1098419479
Bq        -1.2766732798     2.8567572362     0.5819303542
Bq        -1.1608656555     2.8174493555    -0.2086665625
Bq        -1.2911492329     2.8616707213     0.6807549687
Bq        -1.1463897024     2.8125358704    -0.3074911771
Bq        -1.2187694676     2.8371032959     0.1866318958
Bq        -1.2325332867     2.9418959963     0.2805949056
Bq        -1.2035813807     2.9320690261     0.0829456765
Bq        -1.2470092398     2.9468094814     0.3794195202
Bq        -1.1891054276     2.9271555411    -0.0158789381
Bq        -1.2614851928     2.9517229665     0.4782441348
Bq        -1.1746294746     2.9222420560    -0.1147035527
Bq        -1.2759611459     2.9566364516     0.5770687494
Bq        -1.1601535215     2.9173285709    -0.2135281673
Bq        -1.2904370989     2.9615499366     0.6758933640
Bq        -1.1456775685     2.9124150858    -0.3123527819
Bq        -1.2180573337     2.9369825112     0.1817702911
Bq        -1.2318211528     3.0417752117     0.2757333009
Bq        -1.2028692467     3.0319482415     0.0780840717
Bq        -1.2462971059     3.0466886968     0.3745579155
Bq        -1.1883932937     3.0270347564    -0.0207405429
Bq        -1.2607730589     3.0516021819     0.4733825300
Bq        -1.1739173406     3.0221212714    -0.1195651575
Bq        -1.2752490119     3.0565156669     0.5722071446
Bq        -1.1594413876     3.0172077863    -0.2183897721
Bq        -1.2897249650     3.0614291520     0.6710317592
Bq        -1.1449654345     3.0122943012    -0.3172143866
Bq        -1.2173451998     3.0368617266     0.1769086863
Bq        -1.2311090189     3.1416544271     0.2708716961
Bq        -1.2021571128     3.1318274569     0.0732224669
Bq        -1.2455849719     3.1465679121     0.3696963107
Bq        -1.1876811597     3.1269139718    -0.0256021477
Bq        -1.2600609250     3.1514813972     0.4685209253
Bq        -1.1732052067     3.1220004867    -0.1244267622
Bq        -1.2745368780     3.1563948823     0.5673455399
Bq        -1.1587292536     3.1170870017    -0.2232513768
Bq        -1.2890128310     3.1613083674     0.6661701544
Bq        -1.1442533006     3.1121735166    -0.3220759914
Bq        -1.2166330658     3.1367409420     0.1720470815
Bq        -1.2303968849     3.2415336424     0.2660100913
Bq        -1.2014449788     3.2317066723     0.0683608622
Bq        -1.2448728380     3.2464471275     0.3648347059
Bq        -1.1869690258     3.2267931872    -0.0304637524
Bq        -1.2593487910     3.2513606126     0.4636593205
Bq        -1.1724930727     3.2218797021    -0.1292883670
Bq        -1.2738247441     3.2562740977     0.5624839351
Bq        -1.1580171197     3.2169662170    -0.2281129816
Bq        -1.2883006971     3.2611875828     0.6613085497
Bq        -1.1435411667     3.2120527319    -0.3269375962
Bq        -1.2159209319     3.2366201574     0.1671854768
Bq        -1.2296847510     3.3414128578     0.2611484866
Bq        -1.2007328449     3.3315858877     0.0634992574
Bq        -1.2441607040     3.3463263429     0.3599731012
Bq        -1.1862568918     3.3266724026    -0.0353253572
Bq        -1.2586366571     3.3512398280     0.4587977157
Bq        -1.1717809388     3.3217589175    -0.1341499718
Bq        -1.2731126101     3.3561533131     0.5576223303
Bq        -1.1573049858     3.3168454324    -0.2329745864
Bq        -1.2875885632     3.3610667981     0.6564469449
Bq        -1.1428290327     3.3119319473    -0.3317992009
Bq        -1.2152087979     3.3364993727     0.1623238720
Bq        -1.2289726170     3.4412920732     0.2562868818
Bq        -1.2000207110     3.4314651030     0.0586376526
Bq        -1.2434485701     3.4462055583     0.3551114964
Bq        -1.1855447579     3.4265516179    -0.0401869620
Bq        -1.2579245231     3.4511190434     0.4539361110
Bq        -1.1710688049     3.4216381329    -0.1390115765
Bq        -1.2724004762     3.4560325284     0.5527607256
Bq        -1.1565928518     3.4167246478    -0.2378361911
Bq        -1.2868764292     3.4609460135     0.6515853401
Bq        -1.1421168988     3.4118111627    -0.3366608057
Bq        -1.2144966640     3.4363785881     0.1574622672
Bq        -1.2282604831     3.5411712886     0.2514252770
Bq        -1.1993085770     3.5313443184     0.0537760479
Bq        -1.2427364361     3.5460847737     0.3502498916
Bq        -1.1848326240     3.5264308333    -0.0450485667
Bq        -1.2572123892     3.5509982587     0.4490745062
Bq        -1.1703566709     3.5215173482    -0.1438731813
Bq        -1.2716883422     3.5559117438     0.5478991208
Bq        -1.1558807179     3.5166038632    -0.2426977959
Bq        -1.2861642953     3.5608252289     0.6467237354
Bq        -1.1414047648     3.5116903781    -0.3415224105
Bq        -1.2137845301     3.5362578035     0.1526006625
Bq        -1.2275483492     3.6410505039     0.2465636723
Bq        -1.1985964431     3.6312235338     0.0489144431
Bq        -1.2420243022     3.6459639890     0.3453882869
Bq        -1.1841204900     3.6263100487    -0.0499101715
Bq        -1.2565002552     3.6508774741     0.4442129014
Bq        -1.1696445370     3.6213965636    -0.1487347861
Bq        -1.2709762083     3.6557909592     0.5430375160
Bq        -1.1551685839     3.6164830785    -0.2475594007
Bq        -1.2854521613     3.6607044443     0.6418621306
Bq        -1.1406926309     3.6115695935    -0.3463840152
Bq        -1.2130723961     3.6361370189     0.1477390577
Bq        -1.2268362152     3.7409297193     0.2417020675
Bq        -1.1978843091     3.7311027492     0.0440528383
Bq        -1.2413121683     3.7458432044     0.3405266821
Bq        -1.1834083561     3.7261892641    -0.0547717762
Bq        -1.2557881213     3.7507566895     0.4393512967
Bq        -1.1689324030     3.7212757790    -0.1535963908
Bq        -1.2702640743     3.7556701746     0.5381759113
Bq        -1.1544564500     3.7163622939    -0.2524210054
Bq        -1.2847400274     3.7605836597     0.6370005258
Bq        -1.1399804969     3.7114488088    -0.3512456200
Bq        -1.2123602622     3.7360162342     0.1428774529
Bq        -1.2261240813     3.8408089347     0.2368404627
Bq        -1.1971721752     3.8309819645     0.0391912336
Bq        -1.2406000343     3.8457224198     0.3356650773
Bq        -1.1826962221     3.8260684795    -0.0596333810
Bq        -1.2550759874     3.8506359049     0.4344896919
Bq        -1.1682202691     3.8211549944    -0.1584579956
Bq        -1.2695519404     3.8555493900     0.5333143065
Bq        -1.1537443161     3.8162415093    -0.2572826102
Bq        -1.2840278934     3.8604628750     0.6321389211
Bq        -1.1392683630     3.8113280242    -0.3561072248
Bq        -1.2116481282     3.8358954496     0.1380158482
Bq        -1.2254119473     3.9406881501     0.2319788580
Bq        -1.1964600412     3.9308611799     0.0343296288
Bq        -1.2398879004     3.9456016352     0.3308034726
Bq        -1.1819840882     3.9259476948    -0.0644949858
Bq        -1.2543638534     3.9505151202     0.4296280871
Bq        -1.1675081352     3.9210342098    -0.1633196004
Bq        -1.2688398065     3.9554286053     0.5284527017
Bq        -1.1530321821     3.9161207247    -0.2621442150
Bq        -1.2833157595     3.9603420904     0.6272773163
Bq        -1.1385562291     3.9112072396    -0.3609688295

1
2
3
4
5
6
7
8
9
10
11
12
13
14
15
16
17
18
19
20
21
22
23
24
25
26
27
28
29
30
31
32
33
34
35
36
37
38
39
40
41
42
43
44
45
46
47
48
49
50
51
52
53
54
55
56
57
58
59
60
61
62
63
64
65
66
67
68
69
70
71
72
73
74
75
76
77
78
79
80
81
82
83
84
85
86
87
88
89
90
91
92
93
94
95
96
97
98
99
100
101
102
103
104
105
106
107
108
109
110
111
112
113
114
115
116
117
118
119
120
121
122
123
124
125
126
127
128
129
130
131
132
133
134
135
136
137
138
139
140
141
142
143
144
145
146
147
148
149
150
151
152
153
154
155
156
157
158
159
160
161
162
163
164
165
166
167
168
169
170
171
172
173
174
175
176
177
178
179
180
181
182
183
184
185
186
187
188
189
190
191
192
193
194
195
196
197
198
199
200
201
202
203
204
205
206
207
208
209
210
211
212
213
214
215
216
217
218
219
220
221
222
223
224
225
226
227
228
229
230
231
232
233
234
235
236

