%nproc=8
%mem=1000MB
# rb3lyp/6-311+g** NMR geom=connectivity

Title

0 1
C    -4.0500558   -0.5771862    0.8136712
H    -5.0263804   -1.0082727    1.0024760
C    -3.9381552    0.6617804    0.2400876
H    -4.8252424    1.2338890   -0.0111295
C    -2.6768410    1.2433246    0.0057578
C    -1.4974121    0.5051527    0.2848253
C    -1.6508332   -0.7338728    0.9404026
H    -0.7713646   -1.2730967    1.2633753
C    -2.8898548   -1.2624035    1.1994307
H    -2.9683706   -2.2124563    1.7152676
C    -2.5773185    2.5963696   -0.4192930
H    -3.4870728    3.1412239   -0.6474055
C    -1.3741895    3.2147896   -0.4364030
H    -1.2997315    4.2742019   -0.6578144
C    -0.1719488    2.4994090   -0.1734588
C    -0.2043917    1.1018437    0.0192689
C     1.0513491    3.2042560   -0.0676222
H     1.0427344    4.2819499   -0.1896997
C     2.1942091    2.5487446    0.2579577
H     3.1168527    3.0912848    0.4334727
C     2.2216473    1.1336562    0.2934990
C     1.0486931    0.3945528    0.0302412
C     3.4483363    0.4614633    0.5573939
H     4.3095794    1.0606054    0.8334846
C     3.5427346   -0.8855926    0.4749463
H     4.4731467   -1.3939704    0.7038822
C     2.4490052   -1.6474447   -0.0196319
C     1.2150704   -1.0057258   -0.3013573
C     0.2531113   -1.7434440   -1.0216591
H    -0.6541356   -1.2535051   -1.3462847
C     0.4494193   -3.0628597   -1.3413779
H    -0.3083162   -3.5944309   -1.9054060
C     1.6251726   -3.7207967   -0.9552541
H     1.7670048   -4.7687404   -1.1927019
C     2.6109872   -3.0144177   -0.3183050
H     3.5525612   -3.4902813   -0.0646367
Bq         0.7535481794     0.3357143642    -0.1601260713
Bq         0.6251538578     0.2645760691     0.3178427992
Bq         0.5957839429     0.3493311041     0.4271771129
Bq         0.6471416716     0.3777864221     0.2359895647
Bq         0.5701050786     0.3351034451     0.5227708870
Bq         0.6728205359     0.3920140812     0.1403957906
Bq         0.5444262143     0.3208757860     0.6183646610
Bq         0.6984994002     0.4062417402     0.0448020165
Bq         0.5187473499     0.3066481270     0.7139584351
Bq         0.7241782645     0.4204693992    -0.0507917576
Bq         0.4930684856     0.2924204680     0.8095522092
Bq         0.7498571288     0.4346970583    -0.1463855317
Bq         0.6214628072     0.3635587631     0.3315833388
Bq         0.5920928924     0.4483137981     0.4409176524
Bq         0.6434506210     0.4767691162     0.2497301042
Bq         0.5664140280     0.4340861391     0.5365114265
Bq         0.6691294853     0.4909967752     0.1541363301
Bq         0.5407351637     0.4198584801     0.6321052006
Bq         0.6948083497     0.5052244342     0.0585425560
Bq         0.5150562994     0.4056308210     0.7276989747
Bq         0.7204872140     0.5194520933    -0.0370512181
Bq         0.4893774351     0.3914031620     0.8232927488
Bq         0.7461660783     0.5336797523    -0.1326449922
Bq         0.6177717567     0.4625414571     0.3453238783
Bq         0.5884018418     0.5472964922     0.4546581920
Bq         0.6397595705     0.5757518102     0.2634706438
Bq         0.5627229775     0.5330688331     0.5502519661
Bq         0.6654384348     0.5899794692     0.1678768697
Bq         0.5370441132     0.5188411741     0.6458457402
Bq         0.6911172991     0.6042071283     0.0722830956
Bq         0.5113652489     0.5046135151     0.7414395143
Bq         0.7167961634     0.6184347873    -0.0233106785
Bq         0.4856863845     0.4903858560     0.8370332884
Bq         0.7424750278     0.6326624463    -0.1189044526
Bq         0.6140807062     0.5615241512     0.3590644179
Bq         0.5847107913     0.6462791862     0.4683987315
Bq         0.6360685199     0.6747345042     0.2772111833
Bq         0.5590319270     0.6320515272     0.5639925056
Bq         0.6617473843     0.6889621633     0.1816174092
Bq         0.5333530627     0.6178238681     0.6595862797
Bq         0.6874262486     0.7031898223     0.0860236352
Bq         0.5076741983     0.6035962091     0.7551800538
Bq         0.7131051129     0.7174174813    -0.0095701389
Bq         0.4819953340     0.5893685501     0.8507738279
Bq         0.7387839772     0.7316451404    -0.1051639130
Bq         0.6103896556     0.6605068452     0.3728049574
Bq         0.5810197408     0.7452618802     0.4821392711
Bq         0.6323774694     0.7737171983     0.2909517229
Bq         0.5553408764     0.7310342212     0.5777330452
Bq         0.6580563337     0.7879448573     0.1953579488
Bq         0.5296620121     0.7168065622     0.6733268193
Bq         0.6837351981     0.8021725163     0.0997641747
Bq         0.5039831478     0.7025789031     0.7689205934
Bq         0.7094140624     0.8164001754     0.0041704006
Bq         0.4783042835     0.6883512441     0.8645143675
Bq         0.7350929267     0.8306278344    -0.0914233735
Bq         0.6066986051     0.7594895393     0.3865454970
Bq         0.5773286902     0.8442445743     0.4958798107
Bq         0.6286864189     0.8726998923     0.3046922625
Bq         0.5516498259     0.8300169152     0.5914735847
Bq         0.6543652832     0.8869275513     0.2090984884
Bq         0.5259709616     0.8157892562     0.6870673588
Bq         0.6800441475     0.9011552104     0.1135047143
Bq         0.5002920973     0.8015615972     0.7826611329
Bq         0.7057230118     0.9153828694     0.0179109402
Bq         0.4746132329     0.7873339381     0.8782549070
Bq         0.7314018762     0.9296105284    -0.0776828339
Bq         0.6030075546     0.8584722333     0.4002860366
Bq         0.5736376397     0.9432272683     0.5096203502
Bq         0.6249953683     0.9716825864     0.3184328020
Bq         0.5479587754     0.9289996093     0.6052141243
Bq         0.6506742327     0.9859102454     0.2228390279
Bq         0.5222799110     0.9147719502     0.7008078984
Bq         0.6763530970     1.0001379044     0.1272452538
Bq         0.4966010467     0.9005442912     0.7964016725
Bq         0.7020319613     1.0143655634     0.0316514797
Bq         0.4709221824     0.8863166322     0.8919954466
Bq         0.7277108256     1.0285932225    -0.0639422944
Bq         0.5993165040     0.9574549273     0.4140265761
Bq         0.5699465892     1.0422099623     0.5233608898
Bq         0.6213043178     1.0706652804     0.3321733416
Bq         0.5442677248     1.0279823033     0.6189546639
Bq         0.6469831821     1.0848929394     0.2365795675
Bq         0.5185888605     1.0137546443     0.7145484380
Bq         0.6726620464     1.0991205984     0.1409857934
Bq         0.4929099962     0.9995269852     0.8101422121
Bq         0.6983409108     1.1133482575     0.0453920193
Bq         0.4672311319     0.9852993262     0.9057359861
Bq         0.7240197751     1.1275759165    -0.0502017548
Bq         0.5956254535     1.0564376214     0.4277671157
Bq         0.5662555386     1.1411926564     0.5371014293
Bq         0.6176132673     1.1696479744     0.3459138811
Bq         0.5405766743     1.1269649973     0.6326952034
Bq         0.6432921316     1.1838756335     0.2503201070
Bq         0.5148978100     1.1127373383     0.7282889775
Bq         0.6689709959     1.1981032925     0.1547263329
Bq         0.4892189457     1.0985096793     0.8238827516
Bq         0.6946498602     1.2123309515     0.0591325589
Bq         0.4635400813     1.0842820203     0.9194765257
Bq         0.7203287246     1.2265586105    -0.0364612152
Bq         0.5919344029     1.1554203154     0.4415076552
Bq         0.5625644881     1.2401753504     0.5508419689
Bq         0.6139222167     1.2686306685     0.3596544207
Bq         0.5368856238     1.2259476914     0.6464357430
Bq         0.6396010811     1.2828583275     0.2640606466
Bq         0.5112067594     1.2117200323     0.7420295171
Bq         0.6652799454     1.2970859865     0.1684668725
Bq         0.4855278951     1.1974923733     0.8376232912
Bq         0.6909588097     1.3113136455     0.0728730984
Bq         0.4598490308     1.1832647143     0.9332170653
Bq         0.7166376740     1.3255413046    -0.0227206757
Bq         0.5882433524     1.2544030094     0.4552481948
Bq         0.5588734376     1.3391580444     0.5645825084
Bq         0.6102311662     1.3676133625     0.3733949603
Bq         0.5331945732     1.3249303854     0.6601762825
Bq         0.6359100305     1.3818410215     0.2778011862
Bq         0.5075157089     1.3107027264     0.7557700566
Bq         0.6615888948     1.3960686806     0.1822074121
Bq         0.4818368446     1.2964750674     0.8513638307
Bq         0.6872677592     1.4102963396     0.0866136380
Bq         0.4561579803     1.2822474083     0.9469576048
Bq         0.7129466235     1.4245239986    -0.0089801361
Bq         0.5845523019     1.3533857035     0.4689887344
Bq         0.5551823870     1.4381407385     0.5783230480
Bq         0.6065401157     1.4665960565     0.3871354998
Bq         0.5295035227     1.4239130794     0.6739168221
Bq         0.6322189800     1.4808237156     0.2915417257
Bq         0.5038246584     1.4096854204     0.7695105962
Bq         0.6578978443     1.4950513746     0.1959479516
Bq         0.4781457940     1.3954577614     0.8651043703
Bq         0.6835767086     1.5092790336     0.1003541775
Bq         0.4524669297     1.3812301024     0.9606981444
Bq         0.7092555730     1.5235066926     0.0047604034
Bq         0.5808612513     1.4523683975     0.4827292739
Bq         0.5514913365     1.5371234325     0.5920635876
Bq         0.6028490651     1.5655787506     0.4008760394
Bq         0.5258124722     1.5228957735     0.6876573617
Bq         0.6285279294     1.5798064096     0.3052822653
Bq         0.5001336078     1.5086681145     0.7832511358
Bq         0.6542067938     1.5940340686     0.2096884912
Bq         0.4744547435     1.4944404554     0.8788449098
Bq         0.6798856581     1.6082617277     0.1140947171
Bq         0.4487758792     1.4802127964     0.9744386839
Bq         0.7055645224     1.6224893867     0.0185009430
Bq         0.5771702008     1.5513510915     0.4964698135
Bq         0.5478002859     1.6361061265     0.6058041271
Bq         0.5991580146     1.6645614446     0.4146165789
Bq         0.5221214216     1.6218784675     0.7013979012
Bq         0.6248368789     1.6787891036     0.3190228048
Bq         0.4964425573     1.6076508085     0.7969916753
Bq         0.6505157432     1.6930167627     0.2234290307
Bq         0.4707636930     1.5934231495     0.8925854494
Bq         0.6761946076     1.7072444217     0.1278352566
Bq         0.4450848287     1.5791954904     0.9881792235
Bq         0.7018734719     1.7214720807     0.0322414826
Bq         0.5734791503     1.6503337856     0.5102103530
Bq         0.5441092354     1.7350888206     0.6195446667
Bq         0.5954669641     1.7635441386     0.4283571185
Bq         0.5184303711     1.7208611616     0.7151384408
Bq         0.6211458284     1.7777717977     0.3327633444
Bq         0.4927515068     1.7066335025     0.8107322149
Bq         0.6468246927     1.7919994567     0.2371695703
Bq         0.4670726424     1.6924058435     0.9063259890
Bq         0.6725035570     1.8062271157     0.1415757962
Bq         0.4413937781     1.6781781845     1.0019197631
Bq         0.6981824213     1.8204547748     0.0459820221
Bq         0.5697880997     1.7493164796     0.5239508926
Bq         0.5404181849     1.8340715146     0.6332852062
Bq         0.5917759135     1.8625268327     0.4420976581
Bq         0.5147393206     1.8198438556     0.7288789803
Bq         0.6174547778     1.8767544917     0.3465038840
Bq         0.4890604562     1.8056161966     0.8244727544
Bq         0.6431336422     1.8909821507     0.2509101099
Bq         0.4633815919     1.7913885375     0.9200665285
Bq         0.6688125065     1.9052098098     0.1553163358
Bq         0.4377027276     1.7771608785     1.0156603026
Bq         0.6944913708     1.9194374688     0.0597225617
Bq         0.5660970492     1.8482991736     0.5376914321
Bq         0.5367271343     1.9330542087     0.6470257458
Bq         0.5880848630     1.9615095267     0.4558381976
Bq         0.5110482700     1.9188265496     0.7426195199
Bq         0.6137637273     1.9757371857     0.3602444235
Bq         0.4853694057     1.9045988906     0.8382132940
Bq         0.6394425916     1.9899648448     0.2646506494
Bq         0.4596905414     1.8903712316     0.9338070681
Bq         0.6651214560     2.0041925038     0.1690568753
Bq         0.4340116770     1.8761435725     1.0294008422
Bq         0.6908003203     2.0184201628     0.0734631012
Bq         0.5624059987     1.9472818677     0.5514319717
Bq         0.5330360838     2.0320369027     0.6607662854
Bq         0.5843938124     2.0604922207     0.4695787372
Bq         0.5073572195     2.0178092437     0.7563600595
Bq         0.6100726768     2.0747198798     0.3739849631
Bq         0.4816783552     2.0035815846     0.8519538335
Bq         0.6357515411     2.0889475388     0.2783911890
Bq         0.4559994908     1.9893539256     0.9475476076
Bq         0.6614304054     2.1031751978     0.1827974149
Bq         0.4303206265     1.9751262666     1.0431413817
Bq         0.6871092697     2.1174028569     0.0872036408
Bq         0.5587149481     2.0462645617     0.5651725113

1
2
3
4
5
6
7
8
9
10
11
12
13
14
15
16
17
18
19
20
21
22
23
24
25
26
27
28
29
30
31
32
33
34
35
36
37
38
39
40
41
42
43
44
45
46
47
48
49
50
51
52
53
54
55
56
57
58
59
60
61
62
63
64
65
66
67
68
69
70
71
72
73
74
75
76
77
78
79
80
81
82
83
84
85
86
87
88
89
90
91
92
93
94
95
96
97
98
99
100
101
102
103
104
105
106
107
108
109
110
111
112
113
114
115
116
117
118
119
120
121
122
123
124
125
126
127
128
129
130
131
132
133
134
135
136
137
138
139
140
141
142
143
144
145
146
147
148
149
150
151
152
153
154
155
156
157
158
159
160
161
162
163
164
165
166
167
168
169
170
171
172
173
174
175
176
177
178
179
180
181
182
183
184
185
186
187
188
189
190
191
192
193
194
195
196
197
198
199
200
201
202
203
204
205
206
207
208
209
210
211
212
213
214
215
216
217
218
219
220
221
222
223
224
225
226
227
228
229
230
231
232
233
234
235
236

