%nproc=8
%mem=1000MB
# rb3lyp/6-311+g** NMR geom=connectivity

Title

0 1
C    -4.0500558   -0.5771862    0.8136712
H    -5.0263804   -1.0082727    1.0024760
C    -3.9381552    0.6617804    0.2400876
H    -4.8252424    1.2338890   -0.0111295
C    -2.6768410    1.2433246    0.0057578
C    -1.4974121    0.5051527    0.2848253
C    -1.6508332   -0.7338728    0.9404026
H    -0.7713646   -1.2730967    1.2633753
C    -2.8898548   -1.2624035    1.1994307
H    -2.9683706   -2.2124563    1.7152676
C    -2.5773185    2.5963696   -0.4192930
H    -3.4870728    3.1412239   -0.6474055
C    -1.3741895    3.2147896   -0.4364030
H    -1.2997315    4.2742019   -0.6578144
C    -0.1719488    2.4994090   -0.1734588
C    -0.2043917    1.1018437    0.0192689
C     1.0513491    3.2042560   -0.0676222
H     1.0427344    4.2819499   -0.1896997
C     2.1942091    2.5487446    0.2579577
H     3.1168527    3.0912848    0.4334727
C     2.2216473    1.1336562    0.2934990
C     1.0486931    0.3945528    0.0302412
C     3.4483363    0.4614633    0.5573939
H     4.3095794    1.0606054    0.8334846
C     3.5427346   -0.8855926    0.4749463
H     4.4731467   -1.3939704    0.7038822
C     2.4490052   -1.6474447   -0.0196319
C     1.2150704   -1.0057258   -0.3013573
C     0.2531113   -1.7434440   -1.0216591
H    -0.6541356   -1.2535051   -1.3462847
C     0.4494193   -3.0628597   -1.3413779
H    -0.3083162   -3.5944309   -1.9054060
C     1.6251726   -3.7207967   -0.9552541
H     1.7670048   -4.7687404   -1.1927019
C     2.6109872   -3.0144177   -0.3183050
H     3.5525612   -3.4902813   -0.0646367
Bq         1.0347655798     0.9178140731     1.1453311625
Bq         1.0655014305     0.7214195341     0.3704218178
Bq         1.0309235985     0.9423633905     1.2421948306
Bq         1.0693434118     0.6968702167     0.2735581497
Bq         1.0501335052     0.8196168036     0.7578764902
Bq         1.0472644780     0.9411059529     0.8302101288
Bq         1.0549484407     0.8920073182     0.6364827927
Bq         1.0434224967     0.9656552703     0.9270737969
Bq         1.0587904220     0.8674580008     0.5396191246
Bq         1.0395805154     0.9902045877     1.0239374650
Bq         1.0626324034     0.8429086834     0.4427554565
Bq         1.0357385341     1.0147539051     1.1208011331
Bq         1.0664743847     0.8183593660     0.3458917884
Bq         1.0318965527     1.0393032224     1.2176648012
Bq         1.0703163660     0.7938100487     0.2490281203
Bq         1.0511064594     0.9165566355     0.7333464608
Bq         1.0482374323     1.0380457849     0.8056800994
Bq         1.0559213949     0.9889471501     0.6119527632
Bq         1.0443954509     1.0625951022     0.9025437675
Bq         1.0597633763     0.9643978327     0.5150890951
Bq         1.0405534696     1.0871444196     0.9994074356
Bq         1.0636053576     0.9398485154     0.4182254271
Bq         1.0367114883     1.1116937370     1.0962711037
Bq         1.0674473389     0.9152991980     0.3213617590
Bq         1.0328695070     1.1362430544     1.1931347718
Bq         1.0712893202     0.8907498806     0.2244980909
Bq         1.0520794136     1.0134964675     0.7088164313
Bq         1.0492103865     1.1349856168     0.7811500700
Bq         1.0568943492     1.0858869821     0.5874227338
Bq         1.0453684052     1.1595349342     0.8780137381
Bq         1.0607363305     1.0613376647     0.4905590657
Bq         1.0415264238     1.1840842516     0.9748774062
Bq         1.0645783118     1.0367883473     0.3936953976
Bq         1.0376844425     1.2086335689     1.0717410743
Bq         1.0684202931     1.0122390299     0.2968317295
Bq         1.0338424612     1.2331828863     1.1686047423
Bq         1.0722622745     0.9876897125     0.1999680614
Bq         1.0530523678     1.1104362994     0.6842864019
Bq         1.0501833407     1.2319254487     0.7566200406
Bq         1.0578673034     1.1828268140     0.5628927044
Bq         1.0463413594     1.2564747661     0.8534837086
Bq         1.0617092847     1.1582774966     0.4660290363
Bq         1.0424993781     1.2810240835     0.9503473767
Bq         1.0655512660     1.1337281792     0.3691653682
Bq         1.0386573967     1.3055734009     1.0472110448
Bq         1.0693932474     1.1091788619     0.2723017001
Bq         1.0348154154     1.3301227182     1.1440747129
Bq         1.0732352287     1.0846295445     0.1754380320
Bq         1.0540253220     1.2073761314     0.6597563725
Bq         1.0511562949     1.3288652807     0.7320900111
Bq         1.0588402576     1.2797666459     0.5383626750
Bq         1.0473143136     1.3534145981     0.8289536792
Bq         1.0626822389     1.2552173286     0.4414990069
Bq         1.0434723323     1.3779639154     0.9258173473
Bq         1.0665242203     1.2306680112     0.3446353388
Bq         1.0396303510     1.4025132328     1.0226810154
Bq         1.0703662016     1.2061186938     0.2477716707
Bq         1.0357883696     1.4270625502     1.1195446835
Bq         1.0742081829     1.1815693764     0.1509080026
Bq         1.0549982763     1.3043159633     0.6352263430
Bq         1.0521292492     1.4258051126     0.7075599817
Bq         1.0598132118     1.3767064779     0.5138326455
Bq         1.0482872678     1.4503544300     0.8044236498
Bq         1.0636551932     1.3521571605     0.4169689774
Bq         1.0444452865     1.4749037474     0.9012873179
Bq         1.0674971745     1.3276078431     0.3201053093
Bq         1.0406033052     1.4994530647     0.9981509860
Bq         1.0713391558     1.3030585257     0.2232416413
Bq         1.0367613239     1.5240023821     1.0950146541
Bq         1.0751811371     1.2785092084     0.1263779732
Bq         1.0559712305     1.4012557952     0.6106963136
Bq         1.0531022034     1.5227449446     0.6830299523
Bq         1.0607861661     1.4736463098     0.4893026161
Bq         1.0492602221     1.5472942619     0.7798936204
Bq         1.0646281474     1.4490969924     0.3924389480
Bq         1.0454182407     1.5718435793     0.8767572885
Bq         1.0684701287     1.4245476751     0.2955752799
Bq         1.0415762594     1.5963928967     0.9736209565
Bq         1.0723121100     1.3999983577     0.1987116118
Bq         1.0377342781     1.6209422141     1.0704846246
Bq         1.0761540914     1.3754490403     0.1018479437
Bq         1.0569441847     1.4981956272     0.5861662842
Bq         1.0540751576     1.6196847765     0.6584999229
Bq         1.0617591203     1.5705861417     0.4647725867
Bq         1.0502331763     1.6442340939     0.7553635909
Bq         1.0656011016     1.5460368244     0.3679089186
Bq         1.0463911950     1.6687834113     0.8522272590
Bq         1.0694430829     1.5214875070     0.2710452505
Bq         1.0425492136     1.6933327286     0.9490909271
Bq         1.0732850643     1.4969381896     0.1741815824
Bq         1.0387072323     1.7178820460     1.0459545952
Bq         1.0771270456     1.4723888722     0.0773179143
Bq         1.0579171389     1.5951354591     0.5616362548
Bq         1.0550481118     1.7166246084     0.6339698934
Bq         1.0627320745     1.6675259737     0.4402425572
Bq         1.0512061305     1.7411739258     0.7308335615
Bq         1.0665740558     1.6429766563     0.3433788892
Bq         1.0473641492     1.7657232432     0.8276972296
Bq         1.0704160372     1.6184273389     0.2465152211
Bq         1.0435221679     1.7902725606     0.9245608977
Bq         1.0742580185     1.5938780216     0.1496515530
Bq         1.0396801865     1.8148218779     1.0214245658
Bq         1.0780999998     1.5693287042     0.0527878849
Bq         1.0588900932     1.6920752911     0.5371062253
Bq         1.0560210661     1.8135644404     0.6094398640
Bq         1.0637050287     1.7644658056     0.4157125278
Bq         1.0521790847     1.8381137578     0.7063035321
Bq         1.0675470101     1.7399164882     0.3188488597
Bq         1.0483371034     1.8626630751     0.8031672002
Bq         1.0713889914     1.7153671709     0.2219851916
Bq         1.0444951221     1.8872123925     0.9000308683
Bq         1.0752309727     1.6908178535     0.1251215235
Bq         1.0406531407     1.9117617099     0.9968945364
Bq         1.0790729540     1.6662685361     0.0282578555
Bq         1.0598630474     1.7890151230     0.5125761959
Bq         1.0569940203     1.9105042723     0.5849098346
Bq         1.0646779829     1.8614056376     0.3911824984
Bq         1.0531520390     1.9350535897     0.6817735027
Bq         1.0685199643     1.8368563202     0.2943188303
Bq         1.0493100576     1.9596029071     0.7786371707
Bq         1.0723619456     1.8123070028     0.1974551622
Bq         1.0454680763     1.9841522244     0.8755008388
Bq         1.0762039269     1.7877576854     0.1005914941
Bq         1.0416260950     2.0087015418     0.9723645069
Bq         1.0800459083     1.7632083681     0.0037278260
Bq         1.0608360016     1.8859549549     0.4880461665
Bq         1.0579669745     2.0074441043     0.5603798051
Bq         1.0656509372     1.9583454695     0.3666524690
Bq         1.0541249932     2.0319934216     0.6572434732
Bq         1.0694929185     1.9337961521     0.2697888009
Bq         1.0502830119     2.0565427390     0.7541071413
Bq         1.0733348998     1.9092468348     0.1729251328
Bq         1.0464410305     2.0810920564     0.8509708094
Bq         1.0771768812     1.8846975174     0.0760614647
Bq         1.0425990492     2.1056413738     0.9478344775
Bq         1.0810188625     1.8601482000    -0.0208022034
Bq         1.0618089558     1.9828947869     0.4635161371
Bq         1.0589399287     2.1043839362     0.5358497757
Bq         1.0666238914     2.0552853014     0.3421224395
Bq         1.0550979474     2.1289332536     0.6327134438
Bq         1.0704658727     2.0307359841     0.2452587714
Bq         1.0512559661     2.1534825709     0.7295771119
Bq         1.0743078541     2.0061866667     0.1483951034
Bq         1.0474139848     2.1780318883     0.8264407800
Bq         1.0781498354     1.9816373493     0.0515314353
Bq         1.0435720034     2.2025812057     0.9233044481
Bq         1.0819918167     1.9570880319    -0.0453322328
Bq         1.0627819101     2.0798346188     0.4389861076
Bq         1.0599128830     2.2013237681     0.5113197463
Bq         1.0675968456     2.1522251334     0.3175924101
Bq         1.0560709016     2.2258730855     0.6081834144
Bq         1.0714388270     2.1276758160     0.2207287420
Bq         1.0522289203     2.2504224029     0.7050470825
Bq         1.0752808083     2.1031264986     0.1238650739
Bq         1.0483869390     2.2749717203     0.8019107506
Bq         1.0791227896     2.0785771813     0.0270014058
Bq         1.0445449576     2.2995210376     0.8987744186
Bq         1.0829647709     2.0540278639    -0.0698622623
Bq         1.0637548643     2.1767744508     0.4144560782
Bq         1.0608858372     2.2982636001     0.4867897169
Bq         1.0685697998     2.2491649653     0.2930623807
Bq         1.0570438559     2.3228129174     0.5836533850
Bq         1.0724117812     2.2246156479     0.1961987126
Bq         1.0532018745     2.3473622348     0.6805170530
Bq         1.0762537625     2.2000663306     0.0993350445
Bq         1.0493598932     2.3719115522     0.7773807211
Bq         1.0800957438     2.1755170132     0.0024713764
Bq         1.0455179119     2.3964608696     0.8742443892
Bq         1.0839377252     2.1509676958    -0.0943922917
Bq         1.0647278185     2.2737142827     0.3899260488
Bq         1.0618587914     2.3952034320     0.4622596874
Bq         1.0695427541     2.3461047973     0.2685323513
Bq         1.0580168101     2.4197527494     0.5591233555
Bq         1.0733847354     2.3215554799     0.1716686832
Bq         1.0541748288     2.4443020668     0.6559870236
Bq         1.0772267167     2.2970061625     0.0748050151
Bq         1.0503328474     2.4688513841     0.7528506917
Bq         1.0810686981     2.2724568451    -0.0220586530
Bq         1.0464908661     2.4934007015     0.8497143598
Bq         1.0849106794     2.2479075278    -0.1189223211
Bq         1.0657007727     2.3706541146     0.3653960193
Bq         1.0628317456     2.4921432640     0.4377296580
Bq         1.0705157083     2.4430446292     0.2440023218
Bq         1.0589897643     2.5166925813     0.5345933261
Bq         1.0743576896     2.4184953118     0.1471386537
Bq         1.0551477830     2.5412418987     0.6314569942
Bq         1.0781996710     2.3939459944     0.0502749856
Bq         1.0513058016     2.5657912161     0.7283206623
Bq         1.0820416523     2.3693966771    -0.0465886824
Bq         1.0474638203     2.5903405335     0.8251843304
Bq         1.0858836336     2.3448473597    -0.1434523505
Bq         1.0666737270     2.4675939466     0.3408659899
Bq         1.0638046999     2.5890830959     0.4131996286
Bq         1.0714886625     2.5399844611     0.2194722924
Bq         1.0599627185     2.6136324133     0.5100632967
Bq         1.0753306438     2.5154351438     0.1226086243
Bq         1.0561207372     2.6381817306     0.6069269648
Bq         1.0791726252     2.4908858264     0.0257449562
Bq         1.0522787559     2.6627310480     0.7037906328
Bq         1.0830146065     2.4663365090    -0.0711187119

1
2
3
4
5
6
7
8
9
10
11
12
13
14
15
16
17
18
19
20
21
22
23
24
25
26
27
28
29
30
31
32
33
34
35
36
37
38
39
40
41
42
43
44
45
46
47
48
49
50
51
52
53
54
55
56
57
58
59
60
61
62
63
64
65
66
67
68
69
70
71
72
73
74
75
76
77
78
79
80
81
82
83
84
85
86
87
88
89
90
91
92
93
94
95
96
97
98
99
100
101
102
103
104
105
106
107
108
109
110
111
112
113
114
115
116
117
118
119
120
121
122
123
124
125
126
127
128
129
130
131
132
133
134
135
136
137
138
139
140
141
142
143
144
145
146
147
148
149
150
151
152
153
154
155
156
157
158
159
160
161
162
163
164
165
166
167
168
169
170
171
172
173
174
175
176
177
178
179
180
181
182
183
184
185
186
187
188
189
190
191
192
193
194
195
196
197
198
199
200
201
202
203
204
205
206
207
208
209
210
211
212
213
214
215
216
217
218
219
220
221
222
223
224
225
226
227
228
229
230
231
232
233
234
235
236

