%nproc=8
%mem=1000MB
# rb3lyp/6-311+g** NMR geom=connectivity

Title

0 1
C    -4.0500558   -0.5771862    0.8136712
H    -5.0263804   -1.0082727    1.0024760
C    -3.9381552    0.6617804    0.2400876
H    -4.8252424    1.2338890   -0.0111295
C    -2.6768410    1.2433246    0.0057578
C    -1.4974121    0.5051527    0.2848253
C    -1.6508332   -0.7338728    0.9404026
H    -0.7713646   -1.2730967    1.2633753
C    -2.8898548   -1.2624035    1.1994307
H    -2.9683706   -2.2124563    1.7152676
C    -2.5773185    2.5963696   -0.4192930
H    -3.4870728    3.1412239   -0.6474055
C    -1.3741895    3.2147896   -0.4364030
H    -1.2997315    4.2742019   -0.6578144
C    -0.1719488    2.4994090   -0.1734588
C    -0.2043917    1.1018437    0.0192689
C     1.0513491    3.2042560   -0.0676222
H     1.0427344    4.2819499   -0.1896997
C     2.1942091    2.5487446    0.2579577
H     3.1168527    3.0912848    0.4334727
C     2.2216473    1.1336562    0.2934990
C     1.0486931    0.3945528    0.0302412
C     3.4483363    0.4614633    0.5573939
H     4.3095794    1.0606054    0.8334846
C     3.5427346   -0.8855926    0.4749463
H     4.4731467   -1.3939704    0.7038822
C     2.4490052   -1.6474447   -0.0196319
C     1.2150704   -1.0057258   -0.3013573
C     0.2531113   -1.7434440   -1.0216591
H    -0.6541356   -1.2535051   -1.3462847
C     0.4494193   -3.0628597   -1.3413779
H    -0.3083162   -3.5944309   -1.9054060
C     1.6251726   -3.7207967   -0.9552541
H     1.7670048   -4.7687404   -1.1927019
C     2.6109872   -3.0144177   -0.3183050
H     3.5525612   -3.4902813   -0.0646367
Bq         3.0689372417    -0.5544540052     1.5438998104
Bq         3.3081078245    -0.3947600986     1.0173114621
Bq         3.0290754780    -0.5810696563     1.6316645351
Bq         3.3479695883    -0.3681444475     0.9295467374
Bq         2.9892137142    -0.6076853074     1.7194292598
Bq         3.3878313520    -0.3415287964     0.8417820127
Bq         3.1885225331    -0.4746070519     1.2806056363
Bq         3.1376542959    -0.4048297203     1.3926036114
Bq         3.2173778235    -0.3515984181     1.2170741620
Bq         3.0977925322    -0.4314453714     1.4803683361
Bq         3.2572395873    -0.3249827670     1.1293094373
Bq         3.0579307684    -0.4580610225     1.5681330609
Bq         3.2971013511    -0.2983671159     1.0415447126
Bq         3.0180690046    -0.4846766736     1.6558977856
Bq         3.3369631149    -0.2717514648     0.9537799879
Bq         2.9782072408    -0.5112923247     1.7436625103
Bq         3.3768248787    -0.2451358137     0.8660152632
Bq         3.1775160597    -0.3782140692     1.3048388867
Bq         3.1266478226    -0.3084367376     1.4168368619
Bq         3.2063713501    -0.2552054354     1.2413074125
Bq         3.0867860588    -0.3350523887     1.5046015866
Bq         3.2462331139    -0.2285897843     1.1535426878
Bq         3.0469242950    -0.3616680398     1.5923663113
Bq         3.2860948777    -0.2019741332     1.0657779630
Bq         3.0070625312    -0.3882836909     1.6801310360
Bq         3.3259566415    -0.1753584821     0.9780132383
Bq         2.9672007674    -0.4148993420     1.7678957607
Bq         3.3658184053    -0.1487428310     0.8902485136
Bq         3.1665095864    -0.2818210865     1.3290721372
Bq         3.1156413492    -0.2120437549     1.4410701123
Bq         3.1953648768    -0.1588124527     1.2655406629
Bq         3.0757795854    -0.2386594060     1.5288348371
Bq         3.2352266406    -0.1321968016     1.1777759382
Bq         3.0359178216    -0.2652750571     1.6165995618
Bq         3.2750884044    -0.1055811505     1.0900112135
Bq         2.9960560578    -0.2918907082     1.7043642865
Bq         3.3149501681    -0.0789654993     1.0022464888
Bq         2.9561942941    -0.3185063593     1.7921290112
Bq         3.3548119319    -0.0523498482     0.9144817641
Bq         3.1555031130    -0.1854281038     1.3533053876
Bq         3.1046348758    -0.1156507722     1.4653033628
Bq         3.1843584034    -0.0624194700     1.2897739134
Bq         3.0647731120    -0.1422664233     1.5530680875
Bq         3.2242201672    -0.0358038189     1.2020091887
Bq         3.0249113483    -0.1688820744     1.6408328122
Bq         3.2640819310    -0.0091881677     1.1142444640
Bq         2.9850495845    -0.1954977255     1.7285975369
Bq         3.3039436948     0.0174274834     1.0264797392
Bq         2.9451878207    -0.2221133766     1.8163622617
Bq         3.3438054586     0.0440431345     0.9387150145
Bq         3.1444966396    -0.0890351211     1.3775386381
Bq         3.7460074177    -4.9352999078     0.2949942275
Bq         3.8257309453    -4.8820686056     0.1194647781
Bq         3.7061456540    -4.9619155589     0.3827589522
Bq         3.8655927091    -4.8554529545     0.0317000534
Bq         3.6662838902    -4.9885312100     0.4705236770
Bq         3.9054544729    -4.8288373034    -0.0560646713
Bq         3.6264221264    -5.0151468611     0.5582884017
Bq         3.9453162367    -4.8022216522    -0.1438293960
Bq         3.5865603626    -5.0417625122     0.6460531264
Bq         3.9851780005    -4.7756060011    -0.2315941207
Bq         3.7858691815    -4.9086842567     0.2072295028
Bq         3.7350009444    -4.8389069251     0.3192274780
Bq         3.8147244720    -4.7856756229     0.1436980286
Bq         3.6951391806    -4.8655225762     0.4069922027
Bq         3.8545862357    -4.7590599717     0.0559333039
Bq         3.6552774168    -4.8921382273     0.4947569274
Bq         3.8944479995    -4.7324443206    -0.0318314209
Bq         3.6154156530    -4.9187538784     0.5825216521
Bq         3.9343097633    -4.7058286695    -0.1195961456
Bq         3.5755538892    -4.9453695295     0.6702863768
Bq         3.9741715271    -4.6792130184    -0.2073608703
Bq         3.7748627082    -4.8122912740     0.2314627533
Bq         3.7239944710    -4.7425139424     0.3434607285
Bq         3.8037179986    -4.6892826401     0.1679312790
Bq         3.6841327072    -4.7691295935     0.4312254532
Bq         3.8435797624    -4.6626669890     0.0801665543
Bq         3.6442709434    -4.7957452446     0.5189901779
Bq         3.8834415262    -4.6360513379    -0.0075981704
Bq         3.6044091796    -4.8223608957     0.6067549026
Bq         3.9233032899    -4.6094356868    -0.0953628951
Bq         3.5645474159    -4.8489765468     0.6945196273
Bq         3.9631650537    -4.5828200357    -0.1831276198
Bq         3.7638562348    -4.7158982912     0.2556960037
Bq         3.7129879976    -4.6461209596     0.3676939789
Bq         3.7927115252    -4.5928896574     0.1921645295
Bq         3.6731262338    -4.6727366108     0.4554587036
Bq         3.8325732890    -4.5662740063     0.1043998048
Bq         3.6332644701    -4.6993522619     0.5432234283
Bq         3.8724350528    -4.5396583552     0.0166350801
Bq         3.5934027063    -4.7259679130     0.6309881530
Bq         3.9122968166    -4.5130427041    -0.0711296447
Bq         3.5535409425    -4.7525835641     0.7187528778
Bq         3.9521585804    -4.4864270530    -0.1588943694
Bq         3.7528497614    -4.6195053085     0.2799292542
Bq         3.7019815243    -4.5497279769     0.3919272294
Bq         3.7817050518    -4.4964966747     0.2163977799
Bq         3.6621197605    -4.5763436280     0.4796919541
Bq         3.8215668156    -4.4698810236     0.1286330552
Bq         3.6222579967    -4.6029592791     0.5674566788
Bq         3.8614285794    -4.4432653725     0.0408683305
Bq         3.5823962329    -4.6295749303     0.6552214035
Bq         3.9012903432    -4.4166497214    -0.0468963942
Bq         3.5425344691    -4.6561905814     0.7429861282
Bq         3.9411521070    -4.3900340703    -0.1346611189
Bq         3.7418432880    -4.5231123258     0.3041625047
Bq         3.6909750509    -4.4533349942     0.4161604798
Bq         3.7706985785    -4.4001036920     0.2406310304
Bq         3.6511132871    -4.4799506453     0.5039252045
Bq         3.8105603423    -4.3734880409     0.1528663057
Bq         3.6112515233    -4.5065662964     0.5916899293
Bq         3.8504221060    -4.3468723898     0.0651015810
Bq         3.5713897595    -4.5331819475     0.6794546540
Bq         3.8902838698    -4.3202567387    -0.0226631437
Bq         3.5315279957    -4.5597975986     0.7672193787
Bq         3.9301456336    -4.2936410876    -0.1104278685
Bq         3.7308368147    -4.4267193431     0.3283957551
Bq         3.6799685775    -4.3569420115     0.4403937303
Bq         3.7596921051    -4.3037107093     0.2648642809
Bq         3.6401068137    -4.3835576626     0.5281584550
Bq         3.7995538689    -4.2770950582     0.1770995561
Bq         3.6002450499    -4.4101733137     0.6159231797
Bq         3.8394156327    -4.2504794071     0.0893348314
Bq         3.5603832862    -4.4367889648     0.7036879044
Bq         3.8792773965    -4.2238637560     0.0015701067
Bq         3.5205215224    -4.4634046159     0.7914526291
Bq         3.9191391602    -4.1972481049    -0.0861946180
Bq         3.7198303413    -4.3303263604     0.3526290056
Bq         3.6689621041    -4.2605490288     0.4646269807
Bq         3.7486856317    -4.2073177266     0.2890975313
Bq         3.6291003404    -4.2871646799     0.5523917055
Bq         3.7885473955    -4.1807020755     0.2013328066
Bq         3.5892385766    -4.3137803310     0.6401564302
Bq         3.8284091593    -4.1540864244     0.1135680819
Bq         3.5493768128    -4.3403959821     0.7279211549
Bq         3.8682709231    -4.1274707733     0.0258033572
Bq         3.5095150490    -4.3670116332     0.8156858796
Bq         3.9081326869    -4.1008551222    -0.0619613675
Bq         3.7088238679    -4.2339333777     0.3768622560
Bq         3.6579556308    -4.1641560461     0.4888602312
Bq         3.7376791583    -4.1109247439     0.3133307818
Bq         3.6180938670    -4.1907716972     0.5766249559
Bq         3.7775409221    -4.0843090928     0.2255660571
Bq         3.5782321032    -4.2173873483     0.6643896806
Bq         3.8174026859    -4.0576934417     0.1378013323
Bq         3.5383703394    -4.2440029994     0.7521544053
Bq         3.8572644497    -4.0310777905     0.0500366076
Bq         3.4985085756    -4.2706186505     0.8399191300
Bq         3.8971262135    -4.0044621394    -0.0377281171
Bq         3.6978173946    -4.1375403950     0.4010955065
Bq         3.6469491574    -4.0677630634     0.5130934817
Bq         3.7266726850    -4.0145317612     0.3375640322
Bq         3.6070873936    -4.0943787145     0.6008582064
Bq         3.7665344488    -3.9879161100     0.2497993075
Bq         3.5672256298    -4.1209943656     0.6886229311
Bq         3.8063962125    -3.9613004589     0.1620345828
Bq         3.5273638660    -4.1476100167     0.7763876558
Bq         3.8462579763    -3.9346848078     0.0742698581
Bq         3.4875021022    -4.1742256678     0.8641523805
Bq         3.8861197401    -3.9080691567    -0.0134948666
Bq         3.6868109212    -4.0411474123     0.4253287569
Bq         3.6359426840    -3.9713700807     0.5373267321
Bq         3.7156662116    -3.9181387784     0.3617972827
Bq         3.5960809202    -3.9979857318     0.6250914568
Bq         3.7555279754    -3.8915231273     0.2740325580
Bq         3.5562191565    -4.0246013829     0.7128561815
Bq         3.7953897392    -3.8649074762     0.1862678333
Bq         3.5163573927    -4.0512170340     0.8006209063
Bq         3.8352515030    -3.8382918251     0.0985031086
Bq         3.4764956289    -4.0778326851     0.8883856310
Bq         3.8751132668    -3.8116761740     0.0107383838
Bq         3.6758044478    -3.9447544296     0.4495620074
Bq         3.6249362107    -3.8749770979     0.5615599826
Bq         3.7046597382    -3.8217457957     0.3860305331
Bq         3.5850744469    -3.9015927491     0.6493247073
Bq         3.7445215020    -3.7951301446     0.2982658084
Bq         3.5452126831    -3.9282084002     0.7370894320
Bq         3.7843832658    -3.7685144935     0.2105010837
Bq         3.5053509193    -3.9548240513     0.8248541567
Bq         3.8242450296    -3.7418988424     0.1227363590
Bq         3.4654891555    -3.9814397024     0.9126188814
Bq         3.8641067934    -3.7152831913     0.0349716343
Bq         3.6647979744    -3.8483614468     0.4737952579
Bq         3.6139297373    -3.7785841152     0.5857932330
Bq         3.6936532649    -3.7253528130     0.4102637836
Bq         3.5740679735    -3.8051997663     0.6735579577
Bq         3.7335150286    -3.6987371619     0.3224990589
Bq         3.5342062097    -3.8318154174     0.7613226825
Bq         3.7733767924    -3.6721215108     0.2347343342
Bq         3.4943444459    -3.8584310686     0.8490874072
Bq         3.8132385562    -3.6455058597     0.1469696095
Bq         3.4544826821    -3.8850467197     0.9368521319
Bq         3.8531003200    -3.6188902086     0.0592048848
Bq         3.6537915011    -3.7519684641     0.4980285083
Bq         3.6029232639    -3.6821911325     0.6100264835
Bq         3.6826467915    -3.6289598303     0.4344970341
Bq         3.5630615001    -3.7088067836     0.6977912082
Bq         3.7225085553    -3.6023441792     0.3467323094
Bq         3.5231997363    -3.7354224347     0.7855559329
Bq         3.7623703191    -3.5757285281     0.2589675846

1
2
3
4
5
6
7
8
9
10
11
12
13
14
15
16
17
18
19
20
21
22
23
24
25
26
27
28
29
30
31
32
33
34
35
36
37
38
39
40
41
42
43
44
45
46
47
48
49
50
51
52
53
54
55
56
57
58
59
60
61
62
63
64
65
66
67
68
69
70
71
72
73
74
75
76
77
78
79
80
81
82
83
84
85
86
87
88
89
90
91
92
93
94
95
96
97
98
99
100
101
102
103
104
105
106
107
108
109
110
111
112
113
114
115
116
117
118
119
120
121
122
123
124
125
126
127
128
129
130
131
132
133
134
135
136
137
138
139
140
141
142
143
144
145
146
147
148
149
150
151
152
153
154
155
156
157
158
159
160
161
162
163
164
165
166
167
168
169
170
171
172
173
174
175
176
177
178
179
180
181
182
183
184
185
186
187
188
189
190
191
192
193
194
195
196
197
198
199
200
201
202
203
204
205
206
207
208
209
210
211
212
213
214
215
216
217
218
219
220
221
222
223
224
225
226
227
228
229
230
231
232
233
234
235
236

