%nproc=8
%mem=1000MB
# rb3lyp/6-311+g** NMR geom=connectivity

Title

0 1
C    -4.0500558   -0.5771862    0.8136712
H    -5.0263804   -1.0082727    1.0024760
C    -3.9381552    0.6617804    0.2400876
H    -4.8252424    1.2338890   -0.0111295
C    -2.6768410    1.2433246    0.0057578
C    -1.4974121    0.5051527    0.2848253
C    -1.6508332   -0.7338728    0.9404026
H    -0.7713646   -1.2730967    1.2633753
C    -2.8898548   -1.2624035    1.1994307
H    -2.9683706   -2.2124563    1.7152676
C    -2.5773185    2.5963696   -0.4192930
H    -3.4870728    3.1412239   -0.6474055
C    -1.3741895    3.2147896   -0.4364030
H    -1.2997315    4.2742019   -0.6578144
C    -0.1719488    2.4994090   -0.1734588
C    -0.2043917    1.1018437    0.0192689
C     1.0513491    3.2042560   -0.0676222
H     1.0427344    4.2819499   -0.1896997
C     2.1942091    2.5487446    0.2579577
H     3.1168527    3.0912848    0.4334727
C     2.2216473    1.1336562    0.2934990
C     1.0486931    0.3945528    0.0302412
C     3.4483363    0.4614633    0.5573939
H     4.3095794    1.0606054    0.8334846
C     3.5427346   -0.8855926    0.4749463
H     4.4731467   -1.3939704    0.7038822
C     2.4490052   -1.6474447   -0.0196319
C     1.2150704   -1.0057258   -0.3013573
C     0.2531113   -1.7434440   -1.0216591
H    -0.6541356   -1.2535051   -1.3462847
C     0.4494193   -3.0628597   -1.3413779
H    -0.3083162   -3.5944309   -1.9054060
C     1.6251726   -3.7207967   -0.9552541
H     1.7670048   -4.7687404   -1.1927019
C     2.6109872   -3.0144177   -0.3183050
H     3.5525612   -3.4902813   -0.0646367
Bq         0.8550059059     0.0673900279     0.6310691642
Bq         0.8281120366     0.2392352495     1.3091148408
Bq         0.8588478872     0.0428407105     0.5342054961
Bq         0.8242700553     0.2637845669     1.4059785089
Bq         0.8626898686     0.0182913932     0.4373418280
Bq         0.8434799619     0.1410379800     0.9216601684
Bq         0.8406109348     0.2625271294     0.9939938071
Bq         0.8482948975     0.2134284946     0.8002664709
Bq         0.8367689535     0.2870764467     1.0908574752
Bq         0.8521368788     0.1888791772     0.7034028028
Bq         0.8329269722     0.3116257641     1.1877211433
Bq         0.8559788601     0.1643298598     0.6065391347
Bq         0.8290849908     0.3361750815     1.2845848114
Bq         0.8598208415     0.1397805425     0.5096754667
Bq         0.8252430095     0.3607243989     1.3814484795
Bq         0.8636628228     0.1152312251     0.4128117986
Bq         0.8444529161     0.2379778120     0.8971301390
Bq         0.8415838890     0.3594669613     0.9694637777
Bq         0.8492678517     0.3103683265     0.7757364415
Bq         0.8377419077     0.3840162787     1.0663274458
Bq         0.8531098330     0.2858190092     0.6788727734
Bq         0.8338999264     0.4085655960     1.1631911139
Bq         0.8569518144     0.2612696918     0.5820091053
Bq         0.8300579450     0.4331149134     1.2600547819
Bq         0.8607937957     0.2367203744     0.4851454372
Bq         0.8262159637     0.4576642308     1.3569184500
Bq         0.8646357770     0.2121710570     0.3882817691
Bq         0.8454258704     0.3349176439     0.8726001096
Bq         0.8425568433     0.4564067932     0.9449337482
Bq         0.8502408059     0.4073081585     0.7512064121
Bq         0.8387148619     0.4809561106     1.0417974163
Bq         0.8540827872     0.3827588411     0.6543427440
Bq         0.8348728806     0.5055054280     1.1386610844
Bq         0.8579247686     0.3582095237     0.5574790759
Bq         0.8310308993     0.5300547454     1.2355247525
Bq         0.8617667499     0.3336602064     0.4606154078
Bq         0.8271889179     0.5546040627     1.3323884206
Bq         0.8656087312     0.3091108890     0.3637517397
Bq         0.8463988246     0.4318574759     0.8480700802
Bq         0.8435297975     0.5533466252     0.9204037188
Bq         0.8512137601     0.5042479904     0.7266763826
Bq         0.8396878162     0.5778959425     1.0172673869
Bq         0.8550557415     0.4796986730     0.6298127146
Bq         0.8358458348     0.6024452599     1.1141310550
Bq         0.8588977228     0.4551493557     0.5329490465
Bq         0.8320038535     0.6269945773     1.2109947231
Bq         0.8627397041     0.4306000383     0.4360853784
Bq         0.8281618722     0.6515438947     1.3078583912
Bq         0.8665816855     0.4060507209     0.3392217103
Bq         0.8473717788     0.5287973078     0.8235400507
Bq         0.8445027517     0.6502864571     0.8958736894
Bq         0.8521867144     0.6011878224     0.7021463532
Bq         0.8406607704     0.6748357745     0.9927373575
Bq         0.8560286957     0.5766385050     0.6052826851
Bq         0.8368187890     0.6993850919     1.0896010256
Bq         0.8598706770     0.5520891876     0.5084190170
Bq         0.8329768077     0.7239344092     1.1864646937
Bq         0.8637126584     0.5275398702     0.4115553489
Bq         0.8291348264     0.7484837266     1.2833283618
Bq         0.8675546397     0.5029905529     0.3146916809
Bq         0.8483447330     0.6257371397     0.7990100213
Bq         0.8454757059     0.7472262890     0.8713436600
Bq         0.8531596686     0.6981276543     0.6776163238
Bq         0.8416337246     0.7717756064     0.9682073281
Bq         0.8570016499     0.6735783369     0.5807526557
Bq         0.8377917433     0.7963249238     1.0650709961
Bq         0.8608436312     0.6490290195     0.4838889876
Bq         0.8339497619     0.8208742412     1.1619346642
Bq         0.8646856126     0.6244797022     0.3870253195
Bq         0.8301077806     0.8454235585     1.2587983323
Bq         0.8685275939     0.5999303848     0.2901616514
Bq         0.8493176873     0.7226769717     0.7744799919
Bq         0.8464486602     0.8441661210     0.8468136305
Bq         0.8541326228     0.7950674862     0.6530862944
Bq         0.8426066788     0.8687154384     0.9436772986
Bq         0.8579746041     0.7705181689     0.5562226263
Bq         0.8387646975     0.8932647557     1.0405409667
Bq         0.8618165855     0.7459688515     0.4593589582
Bq         0.8349227162     0.9178140731     1.1374046348
Bq         0.8656585668     0.7214195341     0.3624952901
Bq         0.8310807348     0.9423633905     1.2342683029
Bq         0.8695005481     0.6968702167     0.2656316220
Bq         0.8502906415     0.8196168036     0.7499499624
Bq         0.8474216144     0.9411059529     0.8222836011
Bq         0.8551055770     0.8920073182     0.6285562649
Bq         0.8435796331     0.9656552703     0.9191472692
Bq         0.8589475584     0.8674580008     0.5316925968
Bq         0.8397376517     0.9902045877     1.0160109373
Bq         0.8627895397     0.8429086834     0.4348289288
Bq         0.8358956704     1.0147539051     1.1128746054
Bq         0.8666315210     0.8183593660     0.3379652607
Bq         0.8320536891     1.0393032224     1.2097382735
Bq         0.8704735024     0.7938100487     0.2411015926
Bq         0.8512635957     0.9165566355     0.7254199330
Bq         0.8483945686     1.0380457849     0.7977535717
Bq         0.8560785313     0.9889471501     0.6040262355
Bq         0.8445525873     1.0625951022     0.8946172398
Bq         0.8599205126     0.9643978327     0.5071625674
Bq         0.8407106059     1.0871444196     0.9914809079
Bq         0.8637624939     0.9398485154     0.4102988993
Bq         0.8368686246     1.1116937370     1.0883445760
Bq         0.8676044753     0.9152991980     0.3134352312
Bq         0.8330266433     1.1362430544     1.1852082440
Bq         0.8714464566     0.8907498806     0.2165715631
Bq         0.8522365499     1.0134964675     0.7008899036
Bq         0.8493675228     1.1349856168     0.7732235423
Bq         0.8570514855     1.0858869821     0.5794962061
Bq         0.8455255415     1.1595349342     0.8700872103
Bq         0.8608934668     1.0613376647     0.4826325380
Bq         0.8416835602     1.1840842516     0.9669508784
Bq         0.8647354481     1.0367883473     0.3857688699
Bq         0.8378415788     1.2086335689     1.0638145465
Bq         0.8685774295     1.0122390299     0.2889052018
Bq         0.8339995975     1.2331828863     1.1606782146
Bq         0.8724194108     0.9876897125     0.1920415337
Bq         0.8532095042     1.1104362994     0.6763598742
Bq         0.8503404771     1.2319254487     0.7486935128
Bq         0.8580244397     1.1828268140     0.5549661767
Bq         0.8464984957     1.2564747661     0.8455571809
Bq         0.8618664210     1.1582774966     0.4581025086
Bq         0.8426565144     1.2810240835     0.9424208490
Bq         0.8657084024     1.1337281792     0.3612388405
Bq         0.8388145331     1.3055734009     1.0392845171
Bq         0.8695503837     1.1091788619     0.2643751724
Bq         0.8349725517     1.3301227182     1.1361481852
Bq         0.8733923650     1.0846295445     0.1675115043
Bq         0.8541824584     1.2073761314     0.6518298447
Bq         0.8513134313     1.3288652807     0.7241634834
Bq         0.8589973939     1.2797666459     0.5304361472
Bq         0.8474714499     1.3534145981     0.8210271515
Bq         0.8628393753     1.2552173286     0.4335724791
Bq         0.8436294686     1.3779639154     0.9178908196
Bq         0.8666813566     1.2306680112     0.3367088110
Bq         0.8397874873     1.4025132328     1.0147544877
Bq         0.8705233379     1.2061186938     0.2398451430
Bq         0.8359455060     1.4270625502     1.1116181558
Bq         0.8743653193     1.1815693764     0.1429814749
Bq         0.8551554126     1.3043159633     0.6272998153
Bq         0.8522863855     1.4258051126     0.6996334540
Bq         0.8599703482     1.3767064779     0.5059061178
Bq         0.8484444042     1.4503544300     0.7964971221
Bq         0.8638123295     1.3521571605     0.4090424497
Bq         0.8446024228     1.4749037474     0.8933607902
Bq         0.8676543108     1.3276078431     0.3121787816
Bq         0.8407604415     1.4994530647     0.9902244582
Bq         0.8714962921     1.3030585257     0.2153151135
Bq         0.8369184602     1.5240023821     1.0870881263
Bq         0.8753382735     1.2785092084     0.1184514454
Bq         0.8561283668     1.4012557952     0.6027697859
Bq         0.8532593397     1.5227449446     0.6751034245
Bq         0.8609433024     1.4736463098     0.4813760884
Bq         0.8494173584     1.5472942619     0.7719670926
Bq         0.8647852837     1.4490969924     0.3845124203
Bq         0.8455753771     1.5718435793     0.8688307607
Bq         0.8686272650     1.4245476751     0.2876487522
Bq         0.8417333957     1.5963928967     0.9656944288
Bq         0.8724692464     1.3999983577     0.1907850841
Bq         0.8378914144     1.6209422141     1.0625580969
Bq         0.8763112277     1.3754490403     0.0939214160
Bq         0.8571013211     1.4981956272     0.5782397565
Bq         0.8542322940     1.6196847765     0.6505733951
Bq         0.8619162566     1.5705861417     0.4568460589
Bq         0.8503903126     1.6442340939     0.7474370632
Bq         0.8657582379     1.5460368244     0.3599823909
Bq         0.8465483313     1.6687834113     0.8443007313
Bq         0.8696002193     1.5214875070     0.2631187228
Bq         0.8427063500     1.6933327286     0.9411643994
Bq         0.8734422006     1.4969381896     0.1662550547
Bq         0.8388643686     1.7178820460     1.0380280675
Bq         0.8772841819     1.4723888722     0.0693913866
Bq         0.8580742753     1.5951354591     0.5537097270
Bq         0.8552052482     1.7166246084     0.6260433657
Bq         0.8628892108     1.6675259737     0.4323160295
Bq         0.8513632668     1.7411739258     0.7229070338
Bq         0.8667311922     1.6429766563     0.3354523614
Bq         0.8475212855     1.7657232432     0.8197707019
Bq         0.8705731735     1.6184273389     0.2385886933
Bq         0.8436793042     1.7902725606     0.9166343700
Bq         0.8744151548     1.5938780216     0.1417250252
Bq         0.8398373229     1.8148218779     1.0134980381
Bq         0.8782571362     1.5693287042     0.0448613572
Bq         0.8590472295     1.6920752911     0.5291796976
Bq         0.8561782024     1.8135644404     0.6015133363
Bq         0.8638621651     1.7644658056     0.4077860001
Bq         0.8523362211     1.8381137578     0.6983770044
Bq         0.8677041464     1.7399164882     0.3109223320
Bq         0.8484942397     1.8626630751     0.7952406724
Bq         0.8715461277     1.7153671709     0.2140586639
Bq         0.8446522584     1.8872123925     0.8921043405
Bq         0.8753881090     1.6908178535     0.1171949958
Bq         0.8408102771     1.9117617099     0.9889680086
Bq         0.8792300904     1.6662685361     0.0203313277
Bq         0.8600201837     1.7890151230     0.5046496682
Bq         0.8571511566     1.9105042723     0.5769833068
Bq         0.8648351193     1.8614056376     0.3832559707
Bq         0.8533091753     1.9350535897     0.6738469749
Bq         0.8686771006     1.8368563202     0.2863923026
Bq         0.8494671940     1.9596029071     0.7707106430
Bq         0.8725190819     1.8123070028     0.1895286345
Bq         0.8456252126     1.9841522244     0.8675743111

1
2
3
4
5
6
7
8
9
10
11
12
13
14
15
16
17
18
19
20
21
22
23
24
25
26
27
28
29
30
31
32
33
34
35
36
37
38
39
40
41
42
43
44
45
46
47
48
49
50
51
52
53
54
55
56
57
58
59
60
61
62
63
64
65
66
67
68
69
70
71
72
73
74
75
76
77
78
79
80
81
82
83
84
85
86
87
88
89
90
91
92
93
94
95
96
97
98
99
100
101
102
103
104
105
106
107
108
109
110
111
112
113
114
115
116
117
118
119
120
121
122
123
124
125
126
127
128
129
130
131
132
133
134
135
136
137
138
139
140
141
142
143
144
145
146
147
148
149
150
151
152
153
154
155
156
157
158
159
160
161
162
163
164
165
166
167
168
169
170
171
172
173
174
175
176
177
178
179
180
181
182
183
184
185
186
187
188
189
190
191
192
193
194
195
196
197
198
199
200
201
202
203
204
205
206
207
208
209
210
211
212
213
214
215
216
217
218
219
220
221
222
223
224
225
226
227
228
229
230
231
232
233
234
235
236

