%nproc=8
%mem=1000MB
# rb3lyp/6-311+g** NMR geom=connectivity

Title

0 1
C    -4.0500558   -0.5771862    0.8136712
H    -5.0263804   -1.0082727    1.0024760
C    -3.9381552    0.6617804    0.2400876
H    -4.8252424    1.2338890   -0.0111295
C    -2.6768410    1.2433246    0.0057578
C    -1.4974121    0.5051527    0.2848253
C    -1.6508332   -0.7338728    0.9404026
H    -0.7713646   -1.2730967    1.2633753
C    -2.8898548   -1.2624035    1.1994307
H    -2.9683706   -2.2124563    1.7152676
C    -2.5773185    2.5963696   -0.4192930
H    -3.4870728    3.1412239   -0.6474055
C    -1.3741895    3.2147896   -0.4364030
H    -1.2997315    4.2742019   -0.6578144
C    -0.1719488    2.4994090   -0.1734588
C    -0.2043917    1.1018437    0.0192689
C     1.0513491    3.2042560   -0.0676222
H     1.0427344    4.2819499   -0.1896997
C     2.1942091    2.5487446    0.2579577
H     3.1168527    3.0912848    0.4334727
C     2.2216473    1.1336562    0.2934990
C     1.0486931    0.3945528    0.0302412
C     3.4483363    0.4614633    0.5573939
H     4.3095794    1.0606054    0.8334846
C     3.5427346   -0.8855926    0.4749463
H     4.4731467   -1.3939704    0.7038822
C     2.4490052   -1.6474447   -0.0196319
C     1.2150704   -1.0057258   -0.3013573
C     0.2531113   -1.7434440   -1.0216591
H    -0.6541356   -1.2535051   -1.3462847
C     0.4494193   -3.0628597   -1.3413779
H    -0.3083162   -3.5944309   -1.9054060
C     1.6251726   -3.7207967   -0.9552541
H     1.7670048   -4.7687404   -1.1927019
C     2.6109872   -3.0144177   -0.3183050
H     3.5525612   -3.4902813   -0.0646367
Bq         3.7588020613    -1.3754467524     0.6016985399
Bq         3.5790500110    -1.4750403656     1.2708549585
Bq         3.7844809256    -1.3612190934     0.5061047658
Bq         3.5533711467    -1.4892680247     1.3664487326
Bq         3.8101597899    -1.3469914344     0.4105109917
Bq         3.6817654683    -1.4181297295     0.8884798622
Bq         3.6523955534    -1.3333746945     0.9978141758
Bq         3.7037532821    -1.3049193765     0.8066266276
Bq         3.6267166891    -1.3476023536     1.0934079499
Bq         3.7294321464    -1.2906917174     0.7110328535
Bq         3.6010378248    -1.3618300126     1.1890017240
Bq         3.7551110107    -1.2764640584     0.6154390794
Bq         3.5753589605    -1.3760576716     1.2845954981
Bq         3.7807898751    -1.2622363994     0.5198453053
Bq         3.5496800962    -1.3902853306     1.3801892722
Bq         3.8064687394    -1.2480087404     0.4242515312
Bq         3.6780744178    -1.3191470355     0.9022204017
Bq         3.6487045029    -1.2343920005     1.0115547154
Bq         3.7000622316    -1.2059366824     0.8203671672
Bq         3.6230256386    -1.2486196595     1.1071484895
Bq         3.7257410959    -1.1917090234     0.7247733931
Bq         3.5973467743    -1.2628473185     1.2027422636
Bq         3.7514199602    -1.1774813644     0.6291796190
Bq         3.5716679099    -1.2770749776     1.2983360377
Bq         3.7770988245    -1.1632537054     0.5335858449
Bq         3.5459890456    -1.2913026366     1.3939298118
Bq         3.8027776888    -1.1490260463     0.4379920708
Bq         3.6743833672    -1.2201643415     0.9159609413
Bq         3.6450134524    -1.1354093065     1.0252952549
Bq         3.6963711810    -1.1069539884     0.8341077067
Bq         3.6193345881    -1.1496369655     1.1208890290
Bq         3.7220500453    -1.0927263294     0.7385139326
Bq         3.5936557237    -1.1638646245     1.2164828031
Bq         3.7477289097    -1.0784986703     0.6429201586
Bq         3.5679768594    -1.1780922835     1.3120765772
Bq         3.7734077740    -1.0642710113     0.5473263845
Bq         3.5422979951    -1.1923199426     1.4076703513
Bq         3.7990866383    -1.0500433523     0.4517326104
Bq         3.6706923167    -1.1211816474     0.9297014808
Bq         3.6413224018    -1.0364266124     1.0390357945
Bq         3.6926801305    -1.0079712944     0.8478482463
Bq         3.6156435375    -1.0506542714     1.1346295686
Bq         3.7183589948    -0.9937436353     0.7522544722
Bq         3.5899646732    -1.0648819305     1.2302233427
Bq         3.7440378591    -0.9795159763     0.6566606981
Bq         3.5642858089    -1.0791095895     1.3258171168
Bq         3.7697167235    -0.9652883173     0.5610669240
Bq         3.5386069446    -1.0933372485     1.4214108909
Bq         3.7953955878    -0.9510606583     0.4654731499
Bq         3.6670012662    -1.0221989534     0.9434420204
Bq         3.6376313513    -0.9374439184     1.0527763340
Bq         3.6889890800    -0.9089886003     0.8615887859
Bq         3.6119524870    -0.9516715774     1.1483701081
Bq         3.7146679443    -0.8947609413     0.7659950118
Bq         3.5862736227    -0.9658992364     1.2439638822
Bq         3.7403468086    -0.8805332823     0.6704012377
Bq         3.5605947583    -0.9801268955     1.3395576563
Bq         3.7660256729    -0.8663056232     0.5748074636
Bq         3.5349158940    -0.9943545545     1.4351514304
Bq         3.7917045372    -0.8520779642     0.4792136895
Bq         3.6633102156    -0.9232162594     0.9571825600
Bq         3.6339403008    -0.8384612243     1.0665168736
Bq         3.6852980294    -0.8100059063     0.8753293254
Bq         3.6082614365    -0.8526888834     1.1621106477
Bq         3.7109768937    -0.7957782473     0.7797355513
Bq         3.5825825721    -0.8669165424     1.2577044218
Bq         3.7366557581    -0.7815505882     0.6841417772
Bq         3.5569037078    -0.8811442014     1.3532981959
Bq         3.7623346224    -0.7673229292     0.5885480031
Bq         3.5312248435    -0.8953718605     1.4488919700
Bq         3.7880134867    -0.7530952702     0.4929542290
Bq         3.6596191651    -0.8242335653     0.9709230995
Bq         3.6302492502    -0.7394785303     1.0802574132
Bq         3.6816069789    -0.7110232123     0.8890698650
Bq         3.6045703859    -0.7537061893     1.1758511873
Bq         3.7072858432    -0.6967955532     0.7934760909
Bq         3.5788915216    -0.7679338484     1.2714449614
Bq         3.7329647075    -0.6825678942     0.6978823168
Bq         3.5532126573    -0.7821615074     1.3670387355
Bq         3.7586435719    -0.6683402352     0.6022885427
Bq         3.5275337929    -0.7963891664     1.4626325095
Bq         3.7843224362    -0.6541125761     0.5066947686
Bq         3.6559281146    -0.7252508713     0.9846636391
Bq         3.6265581997    -0.6404958363     1.0939979527
Bq         3.6779159283    -0.6120405182     0.9028104045
Bq         3.6008793354    -0.6547234953     1.1895917268
Bq         3.7035947927    -0.5978128592     0.8072166304
Bq         3.5752004711    -0.6689511543     1.2851855009
Bq         3.7292736570    -0.5835852002     0.7116228563
Bq         3.5495216067    -0.6831788134     1.3807792750
Bq         3.7549525213    -0.5693575411     0.6160290823
Bq         3.5238427424    -0.6974064724     1.4763730491
Bq         3.7806313856    -0.5551298821     0.5204353082
Bq         3.6522370640    -0.6262681772     0.9984041786
Bq         3.6228671492    -0.5415131422     1.1077384923
Bq         3.6742248778    -0.5130578242     0.9165509441
Bq         3.5971882848    -0.5557408013     1.2033322664
Bq         3.6999037421    -0.4988301652     0.8209571700
Bq         3.5715094205    -0.5699684603     1.2989260405
Bq         3.7255826065    -0.4846025061     0.7253633959
Bq         3.5458305562    -0.5841961193     1.3945198146
Bq         3.7512614708    -0.4703748471     0.6297696218
Bq         3.5201516919    -0.5984237784     1.4901135887
Bq         3.7769403351    -0.4561471881     0.5341758477
Bq         3.6485460135    -0.5272854832     1.0121447182
Bq         3.6191760986    -0.4425304482     1.1214790318
Bq         3.6705338273    -0.4140751301     0.9302914837
Bq         3.5934972343    -0.4567581072     1.2170728059
Bq         3.6962126916    -0.3998474711     0.8346977096
Bq         3.5678183700    -0.4709857663     1.3126665800
Bq         3.7218915559    -0.3856198121     0.7391039355
Bq         3.5421395057    -0.4852134253     1.4082603541
Bq         3.7475704202    -0.3713921531     0.6435101614
Bq         3.5164606413    -0.4994410843     1.5038541282
Bq         3.7732492846    -0.3571644940     0.5479163873
Bq         3.6448549630    -0.4283027892     1.0258852577
Bq         3.6154850481    -0.3435477542     1.1352195714
Bq         3.6668427767    -0.3150924361     0.9440320232
Bq         3.5898061838    -0.3577754132     1.2308133455
Bq         3.6925216411    -0.3008647771     0.8484382491
Bq         3.5641273195    -0.3720030722     1.3264071196
Bq         3.7182005054    -0.2866371181     0.7528444750
Bq         3.5384484551    -0.3862307313     1.4220008937
Bq         3.7438793697    -0.2724094590     0.6572507009
Bq         3.5127695908    -0.4004583903     1.5175946678
Bq         3.7695582340    -0.2581818000     0.5616569268
Bq         3.6411639124    -0.3293200951     1.0396257973
Bq         3.6117939976    -0.2445650601     1.1489601110
Bq         3.6631517262    -0.2161097421     0.9577725628
Bq         3.5861151332    -0.2587927192     1.2445538851
Bq         3.6888305905    -0.2018820830     0.8621787887
Bq         3.5604362689    -0.2730203782     1.3401476592
Bq         3.7145094549    -0.1876544240     0.7665850146
Bq         3.5347574046    -0.2872480372     1.4357414332
Bq         3.7401883192    -0.1734267650     0.6709912405
Bq         3.5090785403    -0.3014756962     1.5313352073
Bq         3.7658671835    -0.1591991060     0.5753974664
Bq         3.6374728619    -0.2303374011     1.0533663369
Bq         3.6081029470    -0.1455823661     1.1627006505
Bq         3.6594606757    -0.1171270480     0.9715131023
Bq         3.5824240827    -0.1598100251     1.2582944246
Bq         3.6851395400    -0.1028993890     0.8759193282
Bq         3.5567452184    -0.1740376842     1.3538881987
Bq         3.7108184043    -0.0886717300     0.7803255541
Bq         3.5310663541    -0.1882653432     1.4494819728
Bq         3.7364972686    -0.0744440710     0.6847317800
Bq         3.5053874897    -0.2024930022     1.5450757469
Bq         3.7621761330    -0.0602164119     0.5891380060
Bq         3.6337818113    -0.1313547071     1.0671068764
Bq         3.6044118965    -0.0465996721     1.1764411901
Bq         3.6557696251    -0.0181443540     0.9852536419
Bq         3.5787330322    -0.0608273311     1.2720349642
Bq         3.6814484895    -0.0039166950     0.8896598678
Bq         3.5530541678    -0.0750549901     1.3676287383
Bq         3.7071273538     0.0103109641     0.7940660937
Bq         3.5273753035    -0.0892826491     1.4632225124
Bq         3.7328062181     0.0245386231     0.6984723196
Bq         3.5016964392    -0.1035103082     1.5588162865
Bq         3.7584850824     0.0387662821     0.6028785455
Bq         3.6300907608    -0.0323720130     1.0808474160
Bq         3.6007208460     0.0523830220     1.1901817296
Bq         3.6520785746     0.0808383400     0.9989941814
Bq         3.5750419816     0.0381553629     1.2857755037
Bq         3.6777574389     0.0950659991     0.9034004074
Bq         3.5493631173     0.0239277039     1.3813692778
Bq         3.7034363032     0.1092936581     0.8078066333
Bq         3.5236842530     0.0097000449     1.4769630519
Bq         3.7291151676     0.1235213171     0.7122128592
Bq         3.4980053887    -0.0045276141     1.5725568260
Bq         3.7547940319     0.1377489761     0.6166190851
Bq         3.6263997103     0.0666106810     1.0945879555
Bq         3.5970297954     0.1513657160     1.2039222692
Bq         3.6483875241     0.1798210341     1.0127347210
Bq         3.5713509311     0.1371380570     1.2995160433
Bq         3.6740663884     0.1940486931     0.9171409469
Bq         3.5456720668     0.1229103980     1.3951098174
Bq         3.6997452527     0.2082763521     0.8215471728
Bq         3.5199932025     0.1086827389     1.4907035915
Bq         3.7254241170     0.2225040112     0.7259533987
Bq         3.4943143381     0.0944550799     1.5862973656
Bq         3.7511029814     0.2367316702     0.6303596246
Bq         3.6227086597     0.1655933750     1.1083284951
Bq         3.5933387449     0.2503484100     1.2176628088
Bq         3.6446964735     0.2788037281     1.0264752606
Bq         3.5676598806     0.2361207510     1.3132565829
Bq         3.6703753379     0.2930313871     0.9308814865
Bq         3.5419810162     0.2218930920     1.4088503569
Bq         3.6960542022     0.3072590462     0.8352877124
Bq         3.5163021519     0.2076654330     1.5044441310
Bq         3.7217330665     0.3214867052     0.7396939383
Bq         3.4906232876     0.1934377739     1.6000379051
Bq         3.7474119308     0.3357143642     0.6441001642
Bq         3.6190176092     0.2645760691     1.1220690347
Bq         3.5896476943     0.3493311041     1.2314033483
Bq         3.6410054230     0.3777864221     1.0402158001
Bq         3.5639688300     0.3351034451     1.3269971224
Bq         3.6666842873     0.3920140812     0.9446220260
Bq         3.5382899657     0.3208757860     1.4225908965
Bq         3.6923631516     0.4062417402     0.8490282519
Bq         3.5126111014     0.3066481270     1.5181846706

1
2
3
4
5
6
7
8
9
10
11
12
13
14
15
16
17
18
19
20
21
22
23
24
25
26
27
28
29
30
31
32
33
34
35
36
37
38
39
40
41
42
43
44
45
46
47
48
49
50
51
52
53
54
55
56
57
58
59
60
61
62
63
64
65
66
67
68
69
70
71
72
73
74
75
76
77
78
79
80
81
82
83
84
85
86
87
88
89
90
91
92
93
94
95
96
97
98
99
100
101
102
103
104
105
106
107
108
109
110
111
112
113
114
115
116
117
118
119
120
121
122
123
124
125
126
127
128
129
130
131
132
133
134
135
136
137
138
139
140
141
142
143
144
145
146
147
148
149
150
151
152
153
154
155
156
157
158
159
160
161
162
163
164
165
166
167
168
169
170
171
172
173
174
175
176
177
178
179
180
181
182
183
184
185
186
187
188
189
190
191
192
193
194
195
196
197
198
199
200
201
202
203
204
205
206
207
208
209
210
211
212
213
214
215
216
217
218
219
220
221
222
223
224
225
226
227
228
229
230
231
232
233
234
235
236

