%nproc=8
%mem=1000MB
# rb3lyp/6-311+g** NMR geom=connectivity

Title

0 1
C    -4.0500558   -0.5771862    0.8136712
H    -5.0263804   -1.0082727    1.0024760
C    -3.9381552    0.6617804    0.2400876
H    -4.8252424    1.2338890   -0.0111295
C    -2.6768410    1.2433246    0.0057578
C    -1.4974121    0.5051527    0.2848253
C    -1.6508332   -0.7338728    0.9404026
H    -0.7713646   -1.2730967    1.2633753
C    -2.8898548   -1.2624035    1.1994307
H    -2.9683706   -2.2124563    1.7152676
C    -2.5773185    2.5963696   -0.4192930
H    -3.4870728    3.1412239   -0.6474055
C    -1.3741895    3.2147896   -0.4364030
H    -1.2997315    4.2742019   -0.6578144
C    -0.1719488    2.4994090   -0.1734588
C    -0.2043917    1.1018437    0.0192689
C     1.0513491    3.2042560   -0.0676222
H     1.0427344    4.2819499   -0.1896997
C     2.1942091    2.5487446    0.2579577
H     3.1168527    3.0912848    0.4334727
C     2.2216473    1.1336562    0.2934990
C     1.0486931    0.3945528    0.0302412
C     3.4483363    0.4614633    0.5573939
H     4.3095794    1.0606054    0.8334846
C     3.5427346   -0.8855926    0.4749463
H     4.4731467   -1.3939704    0.7038822
C     2.4490052   -1.6474447   -0.0196319
C     1.2150704   -1.0057258   -0.3013573
C     0.2531113   -1.7434440   -1.0216591
H    -0.6541356   -1.2535051   -1.3462847
C     0.4494193   -3.0628597   -1.3413779
H    -0.3083162   -3.5944309   -1.9054060
C     1.6251726   -3.7207967   -0.9552541
H     1.7670048   -4.7687404   -1.1927019
C     2.6109872   -3.0144177   -0.3183050
H     3.5525612   -3.4902813   -0.0646367
Bq         2.4979305260     2.5178117094     0.3421762316
Bq         2.3676469486     2.5620330751     1.2315977629
Bq         2.5124064790     2.5128982243     0.2433516170
Bq         2.4400267138     2.5374656497     0.7374746899
Bq         2.4262628947     2.6422583502     0.8314376998
Bq         2.4552148008     2.6324313800     0.6337884706
Bq         2.4117869416     2.6471718353     0.9302623143
Bq         2.4696907538     2.6275178949     0.5349638560
Bq         2.3973109886     2.6520853203     1.0290869289
Bq         2.4841667069     2.6226044098     0.4361392414
Bq         2.3828350355     2.6569988054     1.1279115435
Bq         2.4986426599     2.6176909248     0.3373146268
Bq         2.3683590825     2.6619122905     1.2267361581
Bq         2.5131186129     2.6127774397     0.2384900122
Bq         2.4407388477     2.6373448651     0.7326130852
Bq         2.4269750286     2.7421375656     0.8265760950
Bq         2.4559269347     2.7323105954     0.6289268658
Bq         2.4124990756     2.7470510506     0.9254007096
Bq         2.4704028877     2.7273971103     0.5301022512
Bq         2.3980231225     2.7519645357     1.0242253242
Bq         2.4848788408     2.7224836252     0.4312776366
Bq         2.3835471695     2.7568780208     1.1230499387
Bq         2.4993547938     2.7175701401     0.3324530221
Bq         2.3690712164     2.7617915059     1.2218745533
Bq         2.5138307469     2.7126566551     0.2336284075
Bq         2.4414509817     2.7372240805     0.7277514804
Bq         2.4276871626     2.8420167809     0.8217144902
Bq         2.4566390686     2.8321898108     0.6240652611
Bq         2.4132112095     2.8469302660     0.9205391048
Bq         2.4711150217     2.8272763257     0.5252406465
Bq         2.3987352565     2.8518437511     1.0193637194
Bq         2.4855909747     2.8223628406     0.4264160319
Bq         2.3842593034     2.8567572362     1.1181883340
Bq         2.5000669278     2.8174493555     0.3275914173
Bq         2.3697833504     2.8616707213     1.2170129486
Bq         2.5145428808     2.8125358704     0.2287668027
Bq         2.4421631156     2.8371032959     0.7228898756
Bq         2.4283992965     2.9418959963     0.8168528855
Bq         2.4573512026     2.9320690261     0.6192036563
Bq         2.4139233435     2.9468094814     0.9156775000
Bq         2.4718271556     2.9271555411     0.5203790417
Bq         2.3994473904     2.9517229665     1.0145021146
Bq         2.4863031087     2.9222420560     0.4215544271
Bq         2.3849714374     2.9566364516     1.1133267292
Bq         2.5007790617     2.9173285709     0.3227298125
Bq         2.3704954843     2.9615499366     1.2121513438
Bq         2.5152550148     2.9124150858     0.2239051979
Bq         2.4428752495     2.9369825112     0.7180282709
Bq         2.4291114304     3.0417752117     0.8119912807
Bq         2.4580633365     3.0319482415     0.6143420515
Bq         2.4146354774     3.0466886968     0.9108158953
Bq         2.4725392896     3.0270347564     0.5155174369
Bq         2.4001595244     3.0516021819     1.0096405099
Bq         2.4870152426     3.0221212714     0.4166928223
Bq         2.3856835713     3.0565156669     1.1084651244
Bq         2.5014911957     3.0172077863     0.3178682078
Bq         2.3712076183     3.0614291520     1.2072897390
Bq         2.5159671487     3.0122943012     0.2190435932
Bq         2.4435873835     3.0368617266     0.7131666661
Bq         2.4298235644     3.1416544271     0.8071296759
Bq         2.4587754705     3.1318274569     0.6094804468
Bq         2.4153476113     3.1465679121     0.9059542905
Bq         2.4732514235     3.1269139718     0.5106558322
Bq         2.4008716583     3.1514813972     1.0047789051
Bq         2.4877273766     3.1220004867     0.4118312176
Bq         2.3863957053     3.1563948823     1.1036035197
Bq         2.5022033296     3.1170870017     0.3130066030
Bq         2.3719197522     3.1613083674     1.2024281343
Bq         2.5166792826     3.1121735166     0.2141819884
Bq         2.4442995174     3.1367409420     0.7083050613
Bq         2.4305356983     3.2415336424     0.8022680712
Bq         2.4594876044     3.2317066723     0.6046188420
Bq         2.4160597453     3.2464471275     0.9010926857
Bq         2.4739635575     3.2267931872     0.5057942274
Bq         2.4015837922     3.2513606126     0.9999173003
Bq         2.4884395105     3.2218797021     0.4069696128
Bq         2.3871078392     3.2562740977     1.0987419149
Bq         2.5029154635     3.2169662170     0.3081449982
Bq         2.3726318861     3.2611875828     1.1975665295
Bq         2.5173914166     3.2120527319     0.2093203836
Bq         2.4450116514     3.2366201574     0.7034434566
Bq         2.4312478323     3.3414128578     0.7974064664
Bq         2.4601997384     3.3315858877     0.5997572372
Bq         2.4167718792     3.3463263429     0.8962310810
Bq         2.4746756914     3.3266724026     0.5009326226
Bq         2.4022959262     3.3512398280     0.9950556956
Bq         2.4891516444     3.3217589175     0.4021080080
Bq         2.3878199731     3.3561533131     1.0938803101
Bq         2.5036275975     3.3168454324     0.3032833935
Bq         2.3733440201     3.3610667981     1.1927049247
Bq         2.5181035505     3.3119319473     0.2044587789
Bq         2.4457237853     3.3364993727     0.6985818518
Bq         2.4319599662     3.4412920732     0.7925448616
Bq         2.4609118723     3.4314651030     0.5948956325
Bq         2.4174840132     3.4462055583     0.8913694762
Bq         2.4753878253     3.4265516179     0.4960710179
Bq         2.4030080601     3.4511190434     0.9901940908
Bq         2.4898637784     3.4216381329     0.3972464033
Bq         2.3885321071     3.4560325284     1.0890187054
Bq         2.5043397314     3.4167246478     0.2984217887
Bq         2.3740561540     3.4609460135     1.1878433200
Bq         2.5188156845     3.4118111627     0.1995971741
Bq         2.4464359193     3.4363785881     0.6937202470
Bq         2.4326721001     3.5411712886     0.7876832569
Bq         2.4616240062     3.5313443184     0.5900340277
Bq         2.4181961471     3.5460847737     0.8865078714
Bq         2.4760999593     3.5264308333     0.4912094131
Bq         2.4037201941     3.5509982587     0.9853324860
Bq         2.4905759123     3.5215173482     0.3923847985
Bq         2.3892442410     3.5559117438     1.0841571006
Bq         2.5050518654     3.5166038632     0.2935601839
Bq         2.3747682880     3.5608252289     1.1829817152
Bq         2.5195278184     3.5116903781     0.1947355693
Bq         2.4471480532     3.5362578035     0.6888586423
Bq         2.4333842341     3.6410505039     0.7828216521
Bq         2.4623361402     3.6312235338     0.5851724229
Bq         2.4189082810     3.6459639890     0.8816462667
Bq         2.4768120932     3.6263100487     0.4863478083
Bq         2.4044323280     3.6508774741     0.9804708813
Bq         2.4912880463     3.6213965636     0.3875231937
Bq         2.3899563750     3.6557909592     1.0792954958
Bq         2.5057639993     3.6164830785     0.2886985792
Bq         2.3754804219     3.6607044443     1.1781201104
Bq         2.5202399524     3.6115695935     0.1898739646
Bq         2.4478601871     3.6361370189     0.6839970375
Bq         2.4340963680     3.7409297193     0.7779600473
Bq         2.4630482741     3.7311027492     0.5803108182
Bq         2.4196204150     3.7458432044     0.8767846619
Bq         2.4775242272     3.7261892641     0.4814862036
Bq         2.4051444619     3.7507566895     0.9756092765
Bq         2.4920001802     3.7212757790     0.3826615890
Bq         2.3906685089     3.7556701746     1.0744338911
Bq         2.5064761333     3.7163622939     0.2838369744
Bq         2.3761925559     3.7605836597     1.1732585057
Bq         2.5209520863     3.7114488088     0.1850123598
Bq         2.4485723211     3.7360162342     0.6791354327
Bq         2.4348085020     3.8408089347     0.7730984426
Bq         2.4637604081     3.8309819645     0.5754492134
Bq         2.4203325489     3.8457224198     0.8719230571
Bq         2.4782363611     3.8260684795     0.4766245988
Bq         2.4058565959     3.8506359049     0.9707476717
Bq         2.4927123142     3.8211549944     0.3777999842
Bq         2.3913806428     3.8555493900     1.0695722863
Bq         2.5071882672     3.8162415093     0.2789753696
Bq         2.3769046898     3.8604628750     1.1683969009
Bq         2.5216642202     3.8113280242     0.1801507550
Bq         2.4492844550     3.8358954496     0.6742738280
Bq         2.4355206359     3.9406881501     0.7682368378
Bq         2.4644725420     3.9308611799     0.5705876086
Bq         2.4210446829     3.9456016352     0.8670614524
Bq         2.4789484950     3.9259476948     0.4717629940
Bq         2.4065687298     3.9505151202     0.9658860670
Bq         2.4934244481     3.9210342098     0.3729383794
Bq         2.3920927768     3.9554286053     1.0647106815
Bq         2.5079004011     3.9161207247     0.2741137649
Bq         2.3776168237     3.9603420904     1.1635352961
Bq         2.5223763542     3.9112072396     0.1752891503
Bq         2.4499965890     3.9357746650     0.6694122232
Bq         2.4362327699     4.0405673655     0.7633752330
Bq         2.4651846759     4.0307403953     0.5657260039
Bq         2.4217568168     4.0454808505     0.8621998476
Bq         2.4796606290     4.0258269102     0.4669013893
Bq         2.4072808638     4.0503943356     0.9610244622
Bq         2.4941365820     4.0209134251     0.3680767747
Bq         2.3928049107     4.0553078207     1.0598490768
Bq         2.5086125351     4.0159999400     0.2692521601
Bq         2.3783289577     4.0602213058     1.1586736914
Bq         2.5230884881     4.0110864550     0.1704275455
Bq         2.4507087229     4.0356538804     0.6645506184
Bq         2.4369449038     4.1404465808     0.7585136283
Bq         2.4658968099     4.1306196107     0.5608643991
Bq         2.4224689508     4.1453600659     0.8573382428
Bq         2.4803727629     4.1257061256     0.4620397845
Bq         2.4079929977     4.1502735510     0.9561628574
Bq         2.4948487160     4.1207926405     0.3632151699
Bq         2.3935170447     4.1551870361     1.0549874720
Bq         2.5093246690     4.1158791554     0.2643905553
Bq         2.3790410916     4.1601005212     1.1538120866
Bq         2.5238006221     4.1109656703     0.1655659407
Bq         2.4514208568     4.1355330958     0.6596890137
Bq         2.4376570377     4.2403257962     0.7536520235
Bq         2.4666089438     4.2304988260     0.5560027943
Bq         2.4231810847     4.2452392813     0.8524766381
Bq         2.4810848969     4.2255853410     0.4571781797
Bq         2.4087051317     4.2501527664     0.9513012527
Bq         2.4955608499     4.2206718559     0.3583535652
Bq         2.3942291786     4.2550662515     1.0501258672
Bq         2.5100368030     4.2157583708     0.2595289506
Bq         2.3797532256     4.2599797365     1.1489504818
Bq         2.5245127560     4.2108448857     0.1607043360
Bq         2.4521329908     4.2354123111     0.6548274089
Bq         2.4383691717     4.3402050116     0.7487904187
Bq         2.4673210778     4.3303780414     0.5511411896
Bq         2.4238932186     4.3451184967     0.8476150333
Bq         2.4817970308     4.3254645563     0.4523165750
Bq         2.4094172656     4.3500319818     0.9464396479
Bq         2.4962729839     4.3205510713     0.3534919604
Bq         2.3949413126     4.3549454668     1.0452642625
Bq         2.5107489369     4.3156375862     0.2546673458
Bq         2.3804653595     4.3598589519     1.1440888771

1
2
3
4
5
6
7
8
9
10
11
12
13
14
15
16
17
18
19
20
21
22
23
24
25
26
27
28
29
30
31
32
33
34
35
36
37
38
39
40
41
42
43
44
45
46
47
48
49
50
51
52
53
54
55
56
57
58
59
60
61
62
63
64
65
66
67
68
69
70
71
72
73
74
75
76
77
78
79
80
81
82
83
84
85
86
87
88
89
90
91
92
93
94
95
96
97
98
99
100
101
102
103
104
105
106
107
108
109
110
111
112
113
114
115
116
117
118
119
120
121
122
123
124
125
126
127
128
129
130
131
132
133
134
135
136
137
138
139
140
141
142
143
144
145
146
147
148
149
150
151
152
153
154
155
156
157
158
159
160
161
162
163
164
165
166
167
168
169
170
171
172
173
174
175
176
177
178
179
180
181
182
183
184
185
186
187
188
189
190
191
192
193
194
195
196
197
198
199
200
201
202
203
204
205
206
207
208
209
210
211
212
213
214
215
216
217
218
219
220
221
222
223
224
225
226
227
228
229
230
231
232
233
234
235
236

