%nproc=8
%mem=1000MB
# rb3lyp/6-311+g** NMR geom=connectivity

Title

0 1
C    -4.0500558   -0.5771862    0.8136712
H    -5.0263804   -1.0082727    1.0024760
C    -3.9381552    0.6617804    0.2400876
H    -4.8252424    1.2338890   -0.0111295
C    -2.6768410    1.2433246    0.0057578
C    -1.4974121    0.5051527    0.2848253
C    -1.6508332   -0.7338728    0.9404026
H    -0.7713646   -1.2730967    1.2633753
C    -2.8898548   -1.2624035    1.1994307
H    -2.9683706   -2.2124563    1.7152676
C    -2.5773185    2.5963696   -0.4192930
H    -3.4870728    3.1412239   -0.6474055
C    -1.3741895    3.2147896   -0.4364030
H    -1.2997315    4.2742019   -0.6578144
C    -0.1719488    2.4994090   -0.1734588
C    -0.2043917    1.1018437    0.0192689
C     1.0513491    3.2042560   -0.0676222
H     1.0427344    4.2819499   -0.1896997
C     2.1942091    2.5487446    0.2579577
H     3.1168527    3.0912848    0.4334727
C     2.2216473    1.1336562    0.2934990
C     1.0486931    0.3945528    0.0302412
C     3.4483363    0.4614633    0.5573939
H     4.3095794    1.0606054    0.8334846
C     3.5427346   -0.8855926    0.4749463
H     4.4731467   -1.3939704    0.7038822
C     2.4490052   -1.6474447   -0.0196319
C     1.2150704   -1.0057258   -0.3013573
C     0.2531113   -1.7434440   -1.0216591
H    -0.6541356   -1.2535051   -1.3462847
C     0.4494193   -3.0628597   -1.3413779
H    -0.3083162   -3.5944309   -1.9054060
C     1.6251726   -3.7207967   -0.9552541
H     1.7670048   -4.7687404   -1.1927019
C     2.6109872   -3.0144177   -0.3183050
H     3.5525612   -3.4902813   -0.0646367
Bq        -3.6891991540    -1.9244519634     1.9374554825
Bq        -3.6902611408    -1.7940038124     2.2076075731
Bq        -3.6888451585    -1.9679346804     1.8474047856
Bq        -3.6906151363    -1.7505210954     2.2976582700
Bq        -3.6884911629    -2.0114173974     1.7573540887
Bq        -3.6909691319    -1.7070383784     2.3877089669
Bq        -3.6881371673    -2.0549001144     1.6673033918
Bq        -3.6913231275    -1.6635556614     2.4777596638
Bq        -3.6877831717    -2.0983828314     1.5772526949
Bq        -3.6895531496    -1.8809692464     2.0275061793
Bq        -3.6897362129    -1.7474351367     2.0740744952
Bq        -3.6890282218    -1.8344005707     1.8939731014
Bq        -3.6900902085    -1.7039524197     2.1641251921
Bq        -3.6886742262    -1.8778832877     1.8039224045
Bq        -3.6904442041    -1.6604697027     2.2541758890
Bq        -3.6883202306    -1.9213660047     1.7138717077
Bq        -3.6907981996    -1.6169869857     2.3442265858
Bq        -3.6879662350    -1.9648487217     1.6238210108
Bq        -3.6911521952    -1.5735042687     2.4342772827
Bq        -3.6876122395    -2.0083314388     1.5337703139
Bq        -3.6893822173    -1.7909178537     1.9840237983
Bq        -3.6895652806    -1.6573837441     2.0305921142
Bq        -3.6888572895    -1.7443491781     1.8504907204
Bq        -3.6899192762    -1.6139010270     2.1206428110
Bq        -3.6885032939    -1.7878318951     1.7604400235
Bq        -3.6902732718    -1.5704183100     2.2106935079
Bq        -3.6881492983    -1.8313146121     1.6703893266
Bq        -3.6906272674    -1.5269355930     2.3007442048
Bq        -3.6877953028    -1.8747973291     1.5803386298
Bq        -3.6909812629    -1.4834528760     2.3907949017
Bq        -3.6874413072    -1.9182800461     1.4902879329
Bq        -3.6892112851    -1.7008664611     1.9405414173
Bq        -3.6893943484    -1.5673323514     1.9871097331
Bq        -3.6886863572    -1.6542977854     1.8070083394
Bq        -3.6897483439    -1.5238496344     2.0771604300
Bq        -3.6883323616    -1.6977805024     1.7169576425
Bq        -3.6901023395    -1.4803669174     2.1672111269
Bq        -3.6879783661    -1.7412632194     1.6269069456
Bq        -3.6904563351    -1.4368842004     2.2572618238
Bq        -3.6876243705    -1.7847459364     1.5368562487
Bq        -3.6908103307    -1.3934014834     2.3473125207
Bq        -3.6872703749    -1.8282286534     1.4468055518
Bq        -3.6890403528    -1.6108150684     1.8970590362
Bq        -3.6892234161    -1.4772809587     1.9436273521
Bq        -3.6885154249    -1.5642463927     1.7635259583
Bq        -3.6895774117    -1.4337982417     2.0336780490
Bq        -3.6881614294    -1.6077291097     1.6734752615
Bq        -3.6899314072    -1.3903155247     2.1237287459
Bq        -3.6878074338    -1.6512118267     1.5834245646
Bq        -3.6902854028    -1.3468328077     2.2137794427
Bq        -3.6874534382    -1.6946945437     1.4933738677
Bq        -3.6906393984    -1.3033500907     2.3038301396
Bq        -3.6870994426    -1.7381772607     1.4033231708
Bq        -3.6888694205    -1.5207636757     1.8535766552
Bq        -3.6890524838    -1.3872295660     1.9001449711
Bq        -3.6883444927    -1.4741950001     1.7200435773
Bq        -3.6894064794    -1.3437468490     1.9901956679
Bq        -3.6879904971    -1.5176777171     1.6299928804
Bq        -3.6897604750    -1.3002641320     2.0802463648
Bq        -3.6876365015    -1.5611604341     1.5399421835
Bq        -3.6901144705    -1.2567814150     2.1702970617
Bq        -3.6872825059    -1.6046431511     1.4498914867
Bq        -3.6904684661    -1.2132986980     2.2603477586
Bq        -3.6869285104    -1.6481258681     1.3598407898
Bq        -3.6886984882    -1.4307122830     1.8100942742
Bq        -3.6888815515    -1.2971781734     1.8566625900
Bq        -3.6881735604    -1.3841436074     1.6765611963
Bq        -3.6892355471    -1.2536954564     1.9467132869
Bq        -3.6878195648    -1.4276263244     1.5865104994
Bq        -3.6895895427    -1.2102127394     2.0367639838
Bq        -3.6874655692    -1.4711090414     1.4964598025
Bq        -3.6899435383    -1.1667300224     2.1268146807
Bq        -3.6871115737    -1.5145917584     1.4064091056
Bq        -3.6902975338    -1.1232473054     2.2168653776
Bq        -3.6867575781    -1.5580744754     1.3163584087
Bq        -3.6885275560    -1.3406608904     1.7666118932
Bq        -3.6887106193    -1.2071267807     1.8131802090
Bq        -3.6880026281    -1.2940922147     1.6330788152
Bq        -3.6890646148    -1.1636440637     1.9032309059
Bq        -3.6876486325    -1.3375749317     1.5430281184
Bq        -3.6894186104    -1.1201613467     1.9932816028
Bq        -3.6872946370    -1.3810576487     1.4529774215
Bq        -3.6897726060    -1.0766786297     2.0833322996
Bq        -3.6869406414    -1.4245403657     1.3629267246
Bq        -3.6901266016    -1.0331959127     2.1733829965
Bq        -3.6865866458    -1.4680230827     1.2728760277
Bq        -3.6883566237    -1.2506094977     1.7231295121
Bq        -3.6885396870    -1.1170753880     1.7696978280
Bq        -3.6878316958    -1.2040408220     1.5895964342
Bq        -3.6888936826    -1.0735926710     1.8597485249
Bq        -3.6874777003    -1.2475235390     1.4995457373
Bq        -3.6892476781    -1.0301099540     1.9497992217
Bq        -3.6871237047    -1.2910062560     1.4094950404
Bq        -3.6896016737    -0.9866272370     2.0398499186
Bq        -3.6867697091    -1.3344889731     1.3194443436
Bq        -3.6899556693    -0.9431445200     2.1299006155
Bq        -3.6864157135    -1.3779716901     1.2293936467
Bq        -3.6881856914    -1.1605581050     1.6796471311
Bq        -3.6883687547    -1.0270239954     1.7262154469
Bq        -3.6876607636    -1.1139894294     1.5461140532
Bq        -3.6887227503    -0.9835412784     1.8162661438
Bq        -3.6873067680    -1.1574721464     1.4560633563
Bq        -3.6890767459    -0.9400585614     1.9063168407
Bq        -3.6869527724    -1.2009548634     1.3660126594
Bq        -3.6894307414    -0.8965758443     1.9963675376
Bq        -3.6865987768    -1.2444375804     1.2759619625
Bq        -3.6897847370    -0.8530931273     2.0864182345
Bq        -3.6862447813    -1.2879202974     1.1859112656
Bq        -3.6880147591    -1.0705067124     1.6361647501
Bq        -3.6881978224    -0.9369726027     1.6827330659
Bq        -3.6874898313    -1.0239380367     1.5026316721
Bq        -3.6885518180    -0.8934898857     1.7727837628
Bq        -3.6871358357    -1.0674207537     1.4125809753
Bq        -3.6889058136    -0.8500071687     1.8628344597
Bq        -3.6867818401    -1.1109034707     1.3225302784
Bq        -3.6892598092    -0.8065244517     1.9528851566
Bq        -3.6864278446    -1.1543861877     1.2324795815
Bq        -3.6896138047    -0.7630417347     2.0429358534
Bq        -3.6860738490    -1.1978689047     1.1424288846
Bq        -3.6878438269    -0.9804553197     1.5926823690
Bq        -3.6880268902    -0.8469212100     1.6392506849
Bq        -3.6873188990    -0.9338866440     1.4591492911
Bq        -3.6883808857    -0.8034384930     1.7293013818
Bq        -3.6869649034    -0.9773693610     1.3690985942
Bq        -3.6887348813    -0.7599557760     1.8193520786
Bq        -3.6866109079    -1.0208520780     1.2790478973
Bq        -3.6890888769    -0.7164730590     1.9094027755
Bq        -3.6862569123    -1.0643347950     1.1889972005
Bq        -3.6894428725    -0.6729903420     1.9994534724
Bq        -3.6859029167    -1.1078175120     1.0989465036
Bq        -3.6876728946    -0.8904039270     1.5491999880
Bq        -3.6878559579    -0.7568698173     1.5957683038
Bq        -3.6871479667    -0.8438352514     1.4156669101
Bq        -3.6882099535    -0.7133871003     1.6858190007
Bq        -3.6867939712    -0.8873179684     1.3256162132
Bq        -3.6885639490    -0.6699043833     1.7758696976
Bq        -3.6864399756    -0.9308006854     1.2355655163
Bq        -3.6889179446    -0.6264216663     1.8659203945
Bq        -3.6860859800    -0.9742834024     1.1455148194
Bq        -3.6892719402    -0.5829389493     1.9559710914
Bq        -3.6857319844    -1.0177661194     1.0554641225
Bq        -3.6875019623    -0.8003525344     1.5057176070
Bq        -3.6876850256    -0.6668184247     1.5522859228
Bq        -3.6869770345    -0.7537838587     1.3721845290
Bq        -3.6880390212    -0.6233357077     1.6423366197
Bq        -3.6866230389    -0.7972665757     1.2821338322
Bq        -3.6883930168    -0.5798529907     1.7323873166
Bq        -3.6862690433    -0.8407492927     1.1920831353
Bq        -3.6887470123    -0.5363702737     1.8224380135
Bq        -3.6859150477    -0.8842320097     1.1020324384
Bq        -3.6891010079    -0.4928875567     1.9124887103
Bq        -3.6855610522    -0.9277147267     1.0119817415
Bq        -3.6873310300    -0.7103011417     1.4622352259
Bq        -3.6875140933    -0.5767670320     1.5088035418
Bq        -3.6868061022    -0.6637324660     1.3287021480
Bq        -3.6878680889    -0.5332843150     1.5988542387
Bq        -3.6864521066    -0.7072151830     1.2386514511
Bq        -3.6882220845    -0.4898015980     1.6889049355
Bq        -3.6860981110    -0.7506979000     1.1486007542
Bq        -3.6885760801    -0.4463188810     1.7789556324
Bq        -3.6857441155    -0.7941806170     1.0585500574
Bq        -3.6889300756    -0.4028361640     1.8690063293
Bq        -3.6853901199    -0.8376633340     0.9684993605
Bq        -3.6871600978    -0.6202497490     1.4187528449
Bq        -3.6873431611    -0.4867156393     1.4653211607
Bq        -3.6866351699    -0.5736810733     1.2852197670
Bq        -3.6876971566    -0.4432329223     1.5553718576
Bq        -3.6862811743    -0.6171637904     1.1951690701
Bq        -3.6880511522    -0.3997502053     1.6454225545
Bq        -3.6859271788    -0.6606465074     1.1051183732
Bq        -3.6884051478    -0.3562674883     1.7354732514
Bq        -3.6855731832    -0.7041292244     1.0150676763
Bq        -3.6887591434    -0.3127847713     1.8255239483
Bq        -3.6852191876    -0.7476119414     0.9250169794
Bq        -3.6869891655    -0.5301983563     1.3752704639
Bq        -3.6871722288    -0.3966642467     1.4218387797
Bq        -3.6864642376    -0.4836296807     1.2417373859
Bq        -3.6875262244    -0.3531815297     1.5118894766
Bq        -3.6861102421    -0.5271123977     1.1516866891
Bq        -3.6878802199    -0.3096988127     1.6019401735
Bq        -3.6857562465    -0.5705951147     1.0616359922
Bq        -3.6882342155    -0.2662160957     1.6919908704
Bq        -3.6854022509    -0.6140778317     0.9715852953
Bq        -3.6885882111    -0.2227333786     1.7820415672
Bq        -3.6850482553    -0.6575605487     0.8815345984
Bq        -3.6868182332    -0.4401469637     1.3317880828
Bq        -3.6870012965    -0.3066128540     1.3783563987
Bq        -3.6862933054    -0.3935782880     1.1982550049
Bq        -3.6873552921    -0.2631301370     1.4684070956
Bq        -3.6859393098    -0.4370610050     1.1082043080
Bq        -3.6877092877    -0.2196474200     1.5584577924
Bq        -3.6855853142    -0.4805437220     1.0181536111
Bq        -3.6880632832    -0.1761647030     1.6485084893
Bq        -3.6852313186    -0.5240264390     0.9281029143
Bq        -3.6884172788    -0.1326819860     1.7385591862
Bq        -3.6848773231    -0.5675091560     0.8380522174
Bq        -3.6866473009    -0.3500955710     1.2883057018
Bq        -3.6868303642    -0.2165614613     1.3348740176
Bq        -3.6861223731    -0.3035268953     1.1547726239
Bq        -3.6871843598    -0.1730787443     1.4249247145

1
2
3
4
5
6
7
8
9
10
11
12
13
14
15
16
17
18
19
20
21
22
23
24
25
26
27
28
29
30
31
32
33
34
35
36
37
38
39
40
41
42
43
44
45
46
47
48
49
50
51
52
53
54
55
56
57
58
59
60
61
62
63
64
65
66
67
68
69
70
71
72
73
74
75
76
77
78
79
80
81
82
83
84
85
86
87
88
89
90
91
92
93
94
95
96
97
98
99
100
101
102
103
104
105
106
107
108
109
110
111
112
113
114
115
116
117
118
119
120
121
122
123
124
125
126
127
128
129
130
131
132
133
134
135
136
137
138
139
140
141
142
143
144
145
146
147
148
149
150
151
152
153
154
155
156
157
158
159
160
161
162
163
164
165
166
167
168
169
170
171
172
173
174
175
176
177
178
179
180
181
182
183
184
185
186
187
188
189
190
191
192
193
194
195
196
197
198
199
200
201
202
203
204
205
206
207
208
209
210
211
212
213
214
215
216
217
218
219
220
221
222
223
224
225
226
227
228
229
230
231
232
233
234
235
236

