%nproc=8
%mem=1000MB
# rb3lyp/6-311+g** NMR geom=connectivity

Title

0 1
C    -4.0500558   -0.5771862    0.8136712
H    -5.0263804   -1.0082727    1.0024760
C    -3.9381552    0.6617804    0.2400876
H    -4.8252424    1.2338890   -0.0111295
C    -2.6768410    1.2433246    0.0057578
C    -1.4974121    0.5051527    0.2848253
C    -1.6508332   -0.7338728    0.9404026
H    -0.7713646   -1.2730967    1.2633753
C    -2.8898548   -1.2624035    1.1994307
H    -2.9683706   -2.2124563    1.7152676
C    -2.5773185    2.5963696   -0.4192930
H    -3.4870728    3.1412239   -0.6474055
C    -1.3741895    3.2147896   -0.4364030
H    -1.2997315    4.2742019   -0.6578144
C    -0.1719488    2.4994090   -0.1734588
C    -0.2043917    1.1018437    0.0192689
C     1.0513491    3.2042560   -0.0676222
H     1.0427344    4.2819499   -0.1896997
C     2.1942091    2.5487446    0.2579577
H     3.1168527    3.0912848    0.4334727
C     2.2216473    1.1336562    0.2934990
C     1.0486931    0.3945528    0.0302412
C     3.4483363    0.4614633    0.5573939
H     4.3095794    1.0606054    0.8334846
C     3.5427346   -0.8855926    0.4749463
H     4.4731467   -1.3939704    0.7038822
C     2.4490052   -1.6474447   -0.0196319
C     1.2150704   -1.0057258   -0.3013573
C     0.2531113   -1.7434440   -1.0216591
H    -0.6541356   -1.2535051   -1.3462847
C     0.4494193   -3.0628597   -1.3413779
H    -0.3083162   -3.5944309   -1.9054060
C     1.6251726   -3.7207967   -0.9552541
H     1.7670048   -4.7687404   -1.1927019
C     2.6109872   -3.0144177   -0.3183050
H     3.5525612   -3.4902813   -0.0646367
Bq         0.1655346032     3.0983315730     0.3517437748
Bq         0.1809025285     3.0001343035    -0.0357108976
Bq         0.1616926218     3.1228808903     0.4486074428
Bq         0.1847445098     2.9755849861    -0.1325745657
Bq         0.1578506405     3.1474302077     0.5454711109
Bq         0.1885864911     2.9510356687    -0.2294382338
Bq         0.1540086592     3.1719795251     0.6423347790
Bq         0.1924284725     2.9264863513    -0.3263019019
Bq         0.1732185658     3.0492329382     0.1580164386
Bq         0.1703495387     3.1707220875     0.2303500772
Bq         0.1780335014     3.1216234528     0.0366227411
Bq         0.1665075574     3.1952714049     0.3272137453
Bq         0.1818754827     3.0970741354    -0.0602409270
Bq         0.1626655761     3.2198207223     0.4240774134
Bq         0.1857174640     3.0725248180    -0.1571045951
Bq         0.1588235947     3.2443700397     0.5209410815
Bq         0.1895594454     3.0479755006    -0.2539682632
Bq         0.1549816134     3.2689193570     0.6178047496
Bq         0.1934014267     3.0234261833    -0.3508319313
Bq         0.1741915200     3.1461727701     0.1334864091
Bq         0.1713224929     3.2676619195     0.2058200478
Bq         0.1790064556     3.2185632847     0.0120927116
Bq         0.1674805116     3.2922112368     0.3026837159
Bq         0.1828484369     3.1940139673    -0.0847709565
Bq         0.1636385303     3.3167605542     0.3995473840
Bq         0.1866904183     3.1694646500    -0.1816346245
Bq         0.1597965489     3.3413098716     0.4964110521
Bq         0.1905323996     3.1449153326    -0.2784982926
Bq         0.1559545676     3.3658591890     0.5932747202
Bq         0.1943743809     3.1203660152    -0.3753619607
Bq         0.1751644743     3.2431126021     0.1089563797
Bq         0.1722954472     3.3646017514     0.1812900184
Bq         0.1799794098     3.3155031167    -0.0124373178
Bq         0.1684534658     3.3891510688     0.2781536865
Bq         0.1838213911     3.2909537993    -0.1093009859
Bq         0.1646114845     3.4137003862     0.3750173546
Bq         0.1876633725     3.2664044819    -0.2061646540
Bq         0.1607695032     3.4382497035     0.4718810227
Bq         0.1915053538     3.2418551645    -0.3030283221
Bq         0.1569275218     3.4627990209     0.5687446907
Bq         0.1953473351     3.2173058471    -0.3998919902
Bq         0.1761374285     3.3400524340     0.0844263503
Bq         0.1732684014     3.4615415833     0.1567599890
Bq         0.1809523640     3.4124429486    -0.0369673472
Bq         0.1694264201     3.4860909007     0.2536236570
Bq         0.1847943454     3.3878936312    -0.1338310153
Bq         0.1655844387     3.5106402181     0.3504873251
Bq         0.1886363267     3.3633443138    -0.2306946834
Bq         0.1617424574     3.5351895355     0.4473509932
Bq         0.1924783080     3.3387949965    -0.3275583515
Bq         0.1579004761     3.5597388528     0.5442146613
Bq         0.1963202894     3.3142456791    -0.4244220196
Bq         0.1771103827     3.4369922660     0.0598963209
Bq         0.1742413556     3.5584814153     0.1322299595
Bq         0.1819253183     3.5093827805    -0.0614973766
Bq         0.1703993743     3.5830307327     0.2290936276
Bq         0.1857672996     3.4848334632    -0.1583610447
Bq         0.1665573930     3.6075800500     0.3259572957
Bq         0.1896092809     3.4602841458    -0.2552247128
Bq         0.1627154116     3.6321293674     0.4228209638
Bq         0.1934512623     3.4357348284    -0.3520883809
Bq         0.1588734303     3.6566786848     0.5196846319
Bq         0.1972932436     3.4111855110    -0.4489520490
Bq         0.1780833369     3.5339320979     0.0353662914
Bq         0.1752143098     3.6554212472     0.1076999301
Bq         0.1828982725     3.6063226125    -0.0860274061
Bq         0.1713723285     3.6799705646     0.2045635982
Bq         0.1867402538     3.5817732951    -0.1828910742
Bq         0.1675303472     3.7045198820     0.3014272663
Bq         0.1905822352     3.5572239777    -0.2797547423
Bq         0.1636883658     3.7290691993     0.3982909344
Bq         0.1944242165     3.5326746603    -0.3766184103
Bq         0.1598463845     3.7536185167     0.4951546025
Bq         0.1982661978     3.5081253430    -0.4734820784
Bq         0.1790562912     3.6308719298     0.0108362620
Bq         0.1761872641     3.7523610792     0.0831699007
Bq         0.1838712267     3.7032624444    -0.1105574355
Bq         0.1723452827     3.7769103965     0.1800335688
Bq         0.1877132080     3.6787131270    -0.2074211036
Bq         0.1685033014     3.8014597139     0.2768972369
Bq         0.1915551894     3.6541638097    -0.3042847717
Bq         0.1646613201     3.8260090313     0.3737609049
Bq         0.1953971707     3.6296144923    -0.4011484398
Bq         0.1608193387     3.8505583487     0.4706245730
Bq         0.1992391520     3.6050651749    -0.4980121079
Bq         0.1800292454     3.7278117618    -0.0136937674
Bq         0.1771602183     3.8493009111     0.0586398712
Bq         0.1848441809     3.8002022763    -0.1350874649
Bq         0.1733182370     3.8738502285     0.1555035393
Bq         0.1886861623     3.7756529590    -0.2319511330
Bq         0.1694762556     3.8983995458     0.2523672074
Bq         0.1925281436     3.7511036416    -0.3288148011
Bq         0.1656342743     3.9229488632     0.3492308755
Bq         0.1963701249     3.7265543242    -0.4256784692
Bq         0.1617922930     3.9474981806     0.4460945436
Bq         0.2002121063     3.7020050068    -0.5225421373
Bq         0.1810021996     3.8247515937    -0.0382237968
Bq         0.1781331725     3.9462407430     0.0341098418
Bq         0.1858171352     3.8971421083    -0.1596174944
Bq         0.1742911912     3.9707900604     0.1309735099
Bq         0.1896591165     3.8725927909    -0.2564811624
Bq         0.1704492098     3.9953393778     0.2278371780
Bq         0.1935010978     3.8480434735    -0.3533448305
Bq         0.1666072285     4.0198886952     0.3247008461
Bq         0.1973430792     3.8234941562    -0.4502084986
Bq         0.1627652472     4.0444380125     0.4215645142
Bq         0.2011850605     3.7989448388    -0.5470721667
Bq         0.1819751538     3.9216914257    -0.0627538263
Bq         0.1791061267     4.0431805750     0.0095798124
Bq         0.1867900894     3.9940819402    -0.1841475238
Bq         0.1752641454     4.0677298924     0.1064434805
Bq         0.1906320707     3.9695326228    -0.2810111919
Bq         0.1714221641     4.0922792097     0.2033071486
Bq         0.1944740520     3.9449833055    -0.3778748600
Bq         0.1675801827     4.1168285271     0.3001708167
Bq         0.1983160334     3.9204339881    -0.4747385281
Bq         0.1637382014     4.1413778445     0.3970344848
Bq         0.2021580147     3.8958846707    -0.5716021961
Bq         0.1829481081     4.0186312576    -0.0872838557
Bq         0.1800790810     4.1401204069    -0.0149502170
Bq         0.1877630436     4.0910217722    -0.2086775532
Bq         0.1762370996     4.1646697243     0.0819134511
Bq         0.1916050249     4.0664724548    -0.3055412213
Bq         0.1723951183     4.1892190417     0.1787771191
Bq         0.1954470063     4.0419231374    -0.4024048894
Bq         0.1685531370     4.2137683590     0.2756407872
Bq         0.1992889876     4.0173738200    -0.4992685575
Bq         0.1647111556     4.2383176764     0.3725044553
Bq         0.2031309689     3.9928245027    -0.5961322256
Bq         0.1839210623     4.1155710895    -0.1118138851
Bq         0.1810520352     4.2370602389    -0.0394802465
Bq         0.1887359978     4.1879616041    -0.2332075826
Bq         0.1772100539     4.2616095562     0.0573834216
Bq         0.1925779792     4.1634122867    -0.3300712507
Bq         0.1733680725     4.2861588736     0.1542470897
Bq         0.1964199605     4.1388629694    -0.4269349188
Bq         0.1695260912     4.3107081910     0.2511107578
Bq         0.2002619418     4.1143136520    -0.5237985869
Bq         0.1656841099     4.3352575084     0.3479744259
Bq         0.2041039232     4.0897643346    -0.6206622550
Bq         0.1848940165     4.2125109215    -0.1363439145
Bq         0.1820249894     4.3340000708    -0.0640102759
Bq         0.1897089521     4.2849014360    -0.2577376121
Bq         0.1781830081     4.3585493882     0.0328533922
Bq         0.1935509334     4.2603521187    -0.3546012802
Bq         0.1743410267     4.3830987055     0.1297170603
Bq         0.1973929147     4.2358028013    -0.4514649482
Bq         0.1704990454     4.4076480229     0.2265807284
Bq         0.2012348961     4.2112534839    -0.5483286163
Bq         0.1666570641     4.4321973403     0.3234443965
Bq         0.2050768774     4.1867041665    -0.6451922844
Bq         0.1858669707     4.3094507534    -0.1608739440
Bq         0.1829979436     4.4309399027    -0.0885403053
Bq         0.1906819063     4.3818412680    -0.2822676415
Bq         0.1791559623     4.4554892201     0.0083233628
Bq         0.1945238876     4.3572919506    -0.3791313096
Bq         0.1753139810     4.4800385375     0.1051870309
Bq         0.1983658689     4.3327426332    -0.4759949777
Bq         0.1714719996     4.5045878549     0.2020506990
Bq         0.2022078503     4.3081933159    -0.5728586458
Bq         0.1676300183     4.5291371722     0.2989143670
Bq         0.2060498316     4.2836439985    -0.6697223139
Bq         0.1868399250     4.4063905854    -0.1854039734
Bq         0.2342716642    -0.4160516942     1.1419244299
Bq         0.2419556269    -0.4651503290     0.9481970937
Bq         0.2304296829    -0.3915023768     1.2387880980
Bq         0.2457976082    -0.4896996464     0.8513334256
Bq         0.2265877016    -0.3669530595     1.3356517661
Bq         0.2496395896    -0.5142489637     0.7544697575
Bq         0.2227457203    -0.3424037421     1.4325154342
Bq         0.2534815709    -0.5387982811     0.6576060895
Bq         0.2189037389    -0.3178544247     1.5293791023
Bq         0.2573235522    -0.5633475985     0.5607424214
Bq         0.2381136456    -0.4406010116     1.0450607618
Bq         0.2352446185    -0.3191118623     1.1173944005
Bq         0.2429285811    -0.3682104970     0.9236670643
Bq         0.2314026371    -0.2945625449     1.2142580686
Bq         0.2467705625    -0.3927598144     0.8268033962
Bq         0.2275606558    -0.2700132275     1.3111217367
Bq         0.2506125438    -0.4173091318     0.7299397281
Bq         0.2237186745    -0.2454639102     1.4079854048
Bq         0.2544545251    -0.4418584492     0.6330760600
Bq         0.2198766931    -0.2209145928     1.5048490728
Bq         0.2582965064    -0.4664077665     0.5362123919
Bq         0.2390865998    -0.3436611797     1.0205307324
Bq         0.2362175727    -0.2221720303     1.0928643711
Bq         0.2439015353    -0.2712706651     0.8991370349
Bq         0.2323755914    -0.1976227130     1.1897280391
Bq         0.2477435167    -0.2958199825     0.8022733668
Bq         0.2285336100    -0.1730733956     1.2865917072
Bq         0.2515854980    -0.3203692998     0.7054096987
Bq         0.2246916287    -0.1485240782     1.3834553753
Bq         0.2554274793    -0.3449186172     0.6085460306
Bq         0.2208496474    -0.1239747608     1.4803190434
Bq         0.2592694607    -0.3694679346     0.5116823625
Bq         0.2400595540    -0.2467213477     0.9960007030
Bq         0.2371905269    -0.1252321984     1.0683343416
Bq         0.2448744896    -0.1743308332     0.8746070054
Bq         0.2333485456    -0.1006828810     1.1651980097
Bq         0.2487164709    -0.1988801505     0.7777433374

1
2
3
4
5
6
7
8
9
10
11
12
13
14
15
16
17
18
19
20
21
22
23
24
25
26
27
28
29
30
31
32
33
34
35
36
37
38
39
40
41
42
43
44
45
46
47
48
49
50
51
52
53
54
55
56
57
58
59
60
61
62
63
64
65
66
67
68
69
70
71
72
73
74
75
76
77
78
79
80
81
82
83
84
85
86
87
88
89
90
91
92
93
94
95
96
97
98
99
100
101
102
103
104
105
106
107
108
109
110
111
112
113
114
115
116
117
118
119
120
121
122
123
124
125
126
127
128
129
130
131
132
133
134
135
136
137
138
139
140
141
142
143
144
145
146
147
148
149
150
151
152
153
154
155
156
157
158
159
160
161
162
163
164
165
166
167
168
169
170
171
172
173
174
175
176
177
178
179
180
181
182
183
184
185
186
187
188
189
190
191
192
193
194
195
196
197
198
199
200
201
202
203
204
205
206
207
208
209
210
211
212
213
214
215
216
217
218
219
220
221
222
223
224
225
226
227
228
229
230
231
232
233
234
235
236

