%nproc=8
%mem=1000MB
# rb3lyp/6-311+g** NMR geom=connectivity

Title

0 1
C    -4.0500558   -0.5771862    0.8136712
H    -5.0263804   -1.0082727    1.0024760
C    -3.9381552    0.6617804    0.2400876
H    -4.8252424    1.2338890   -0.0111295
C    -2.6768410    1.2433246    0.0057578
C    -1.4974121    0.5051527    0.2848253
C    -1.6508332   -0.7338728    0.9404026
H    -0.7713646   -1.2730967    1.2633753
C    -2.8898548   -1.2624035    1.1994307
H    -2.9683706   -2.2124563    1.7152676
C    -2.5773185    2.5963696   -0.4192930
H    -3.4870728    3.1412239   -0.6474055
C    -1.3741895    3.2147896   -0.4364030
H    -1.2997315    4.2742019   -0.6578144
C    -0.1719488    2.4994090   -0.1734588
C    -0.2043917    1.1018437    0.0192689
C     1.0513491    3.2042560   -0.0676222
H     1.0427344    4.2819499   -0.1896997
C     2.1942091    2.5487446    0.2579577
H     3.1168527    3.0912848    0.4334727
C     2.2216473    1.1336562    0.2934990
C     1.0486931    0.3945528    0.0302412
C     3.4483363    0.4614633    0.5573939
H     4.3095794    1.0606054    0.8334846
C     3.5427346   -0.8855926    0.4749463
H     4.4731467   -1.3939704    0.7038822
C     2.4490052   -1.6474447   -0.0196319
C     1.2150704   -1.0057258   -0.3013573
C     0.2531113   -1.7434440   -1.0216591
H    -0.6541356   -1.2535051   -1.3462847
C     0.4494193   -3.0628597   -1.3413779
H    -0.3083162   -3.5944309   -1.9054060
C     1.6251726   -3.7207967   -0.9552541
H     1.7670048   -4.7687404   -1.1927019
C     2.6109872   -3.0144177   -0.3183050
H     3.5525612   -3.4902813   -0.0646367
Bq         0.2998349192    -4.3037107093    -1.3065644490
Bq         0.1802496278    -4.3835576626    -1.0432702749
Bq         0.3396966830    -4.2770950582    -1.3943291737
Bq         0.1403878640    -4.4101733137    -0.9555055502
Bq         0.3795584468    -4.2504794071    -1.4820938984
Bq         0.1005261002    -4.4367889648    -0.8677408255
Bq         0.4194202105    -4.2238637560    -1.5698586232
Bq         0.0606643365    -4.4634046159    -0.7799761007
Bq         0.4592819743    -4.1972481049    -1.6576233479
Bq         0.2599731554    -4.3303263604    -1.2187997243
Bq         0.2091049182    -4.2605490288    -1.1068017491
Bq         0.2888284458    -4.2073177266    -1.2823311986
Bq         0.1692431544    -4.2871646799    -1.0190370244
Bq         0.3286902096    -4.1807020755    -1.3700959233
Bq         0.1293813907    -4.3137803310    -0.9312722997
Bq         0.3685519734    -4.1540864244    -1.4578606480
Bq         0.0895196269    -4.3403959821    -0.8435075750
Bq         0.4084137372    -4.1274707733    -1.5456253727
Bq         0.0496578631    -4.3670116332    -0.7557428503
Bq         0.4482755010    -4.1008551222    -1.6333900974
Bq         0.2489666820    -4.2339333777    -1.1945664738
Bq         0.1980984449    -4.1641560461    -1.0825684987
Bq         0.2778219724    -4.1109247439    -1.2580979481
Bq         0.1582366811    -4.1907716972    -0.9948037740
Bq         0.3176837362    -4.0843090928    -1.3458626728
Bq         0.1183749173    -4.2173873483    -0.9070390493
Bq         0.3575455000    -4.0576934417    -1.4336273975
Bq         0.0785131535    -4.2440029994    -0.8192743245
Bq         0.3974072638    -4.0310777905    -1.5213921222
Bq         0.0386513897    -4.2706186505    -0.7315095998
Bq         0.4372690276    -4.0044621394    -1.6091568470
Bq         0.2379602086    -4.1375403950    -1.1703332234
Bq         0.1870919715    -4.0677630634    -1.0583352482
Bq         0.2668154991    -4.0145317612    -1.2338646976
Bq         0.1472302077    -4.0943787145    -0.9705705235
Bq         0.3066772628    -3.9879161100    -1.3216294224
Bq         0.1073684439    -4.1209943656    -0.8828057988
Bq         0.3465390266    -3.9613004589    -1.4093941471
Bq         0.0675066801    -4.1476100167    -0.7950410741
Bq         0.3864007904    -3.9346848078    -1.4971588718
Bq         0.0276449163    -4.1742256678    -0.7072763494
Bq         0.4262625542    -3.9080691567    -1.5849235965
Bq         0.2269537353    -4.0411474123    -1.1460999729
Bq         0.1760854981    -3.9713700807    -1.0341019978
Bq         0.2558090257    -3.9181387784    -1.2096314472
Bq         0.1362237343    -3.9979857318    -0.9463372730
Bq         0.2956707895    -3.8915231273    -1.2973961719
Bq         0.0963619705    -4.0246013829    -0.8585725483
Bq         0.3355325533    -3.8649074762    -1.3851608966
Bq         0.0565002068    -4.0512170340    -0.7708078236
Bq         0.3753943171    -3.8382918251    -1.4729256213
Bq         0.0166384430    -4.0778326851    -0.6830430989
Bq         0.4152560808    -3.8116761740    -1.5606903460
Bq         0.2159472619    -3.9447544296    -1.1218667225
Bq         0.1650790247    -3.8749770979    -1.0098687473
Bq         0.2448025523    -3.8217457957    -1.1853981967
Bq         0.1252172610    -3.9015927491    -0.9221040226
Bq         0.2846643161    -3.7951301446    -1.2731629214
Bq         0.0853554972    -3.9282084002    -0.8343392979
Bq         0.3245260799    -3.7685144935    -1.3609276462
Bq         0.0454937334    -3.9548240513    -0.7465745732
Bq         0.3643878437    -3.7418988424    -1.4486923709
Bq         0.0056319696    -3.9814397024    -0.6588098485
Bq         0.4042496075    -3.7152831913    -1.5364570956
Bq         0.2049407885    -3.8483614468    -1.0976334720
Bq         0.1540725514    -3.7785841152    -0.9856354968
Bq         0.2337960789    -3.7253528130    -1.1611649463
Bq         0.1142107876    -3.8051997663    -0.8978707721
Bq         0.2736578427    -3.6987371619    -1.2489296710
Bq         0.0743490238    -3.8318154174    -0.8101060474
Bq         0.3135196065    -3.6721215108    -1.3366943957
Bq         0.0344872600    -3.8584310686    -0.7223413227
Bq         0.3533813703    -3.6455058597    -1.4244591204
Bq        -0.0053745038    -3.8850467197    -0.6345765980
Bq         0.3932431341    -3.6188902086    -1.5122238451
Bq         0.1939343152    -3.7519684641    -1.0734002216
Bq         0.1430660780    -3.6821911325    -0.9614022464
Bq         0.2227896056    -3.6289598303    -1.1369316958
Bq         0.1032043142    -3.7088067836    -0.8736375217
Bq         0.2626513694    -3.6023441792    -1.2246964205
Bq         0.0633425504    -3.7354224347    -0.7858727970
Bq         0.3025131331    -3.5757285281    -1.3124611452
Bq         0.0234807866    -3.7620380858    -0.6981080723
Bq         0.3423748969    -3.5491128770    -1.4002258700
Bq        -0.0163809772    -3.7886537369    -0.6103433475
Bq         0.3822366607    -3.5224972259    -1.4879905947
Bq         0.1829278418    -3.6555754814    -1.0491669711
Bq         0.1320596046    -3.5857981498    -0.9371689959
Bq         0.2117831322    -3.5325668476    -1.1126984454
Bq         0.0921978408    -3.6124138009    -0.8494042712
Bq         0.2516448960    -3.5059511965    -1.2004631701
Bq         0.0523360771    -3.6390294520    -0.7616395465
Bq         0.2915066598    -3.4793355454    -1.2882278948
Bq         0.0124743133    -3.6656451031    -0.6738748218
Bq         0.3313684236    -3.4527198943    -1.3759926195
Bq        -0.0273874505    -3.6922607542    -0.5861100971
Bq         0.3712301874    -3.4261042432    -1.4637573442
Bq         0.1719213684    -3.5591824987    -1.0249337206
Bq         0.1210531313    -3.4894051671    -0.9129357455
Bq         0.2007766588    -3.4361738649    -1.0884651949
Bq         0.0811913675    -3.5160208182    -0.8251710208
Bq         0.2406384226    -3.4095582138    -1.1762299196
Bq         0.0413296037    -3.5426364693    -0.7374062960
Bq         0.2805001864    -3.3829425627    -1.2639946443
Bq         0.0014678399    -3.5692521204    -0.6496415713
Bq         0.3203619502    -3.3563269116    -1.3517593690
Bq        -0.0383939239    -3.5958677715    -0.5618768466
Bq         0.3602237140    -3.3297112605    -1.4395240937
Bq         0.1609148950    -3.4627895160    -1.0007004702
Bq         0.1100466579    -3.3930121844    -0.8887024950
Bq         0.1897701855    -3.3397808822    -1.0642319444
Bq         0.0701848941    -3.4196278355    -0.8009377703
Bq         0.2296319492    -3.3131652311    -1.1519966692
Bq         0.0303231303    -3.4462434866    -0.7131730456
Bq         0.2694937130    -3.2865495800    -1.2397613939
Bq        -0.0095386335    -3.4728591377    -0.6254083209
Bq         0.3093554768    -3.2599339288    -1.3275261186
Bq        -0.0494003973    -3.4994747888    -0.5376435962
Bq         0.3492172406    -3.2333182777    -1.4152908433
Bq         0.1499084217    -3.3663965333    -0.9764672197
Bq         0.0990401845    -3.2966192017    -0.8644692446
Bq         0.1787637121    -3.2433878995    -1.0399986940
Bq         0.0591784207    -3.3232348528    -0.7767045198
Bq         0.2186254759    -3.2167722484    -1.1277634187
Bq         0.0193166569    -3.3498505039    -0.6889397951
Bq         0.2584872397    -3.1901565972    -1.2155281434
Bq        -0.0205451069    -3.3764661550    -0.6011750704
Bq         0.2983490034    -3.1635409461    -1.3032928681
Bq        -0.0604068706    -3.4030818061    -0.5134103457
Bq         0.3382107672    -3.1369252950    -1.3910575928
Bq         0.1389019483    -3.2700035506    -0.9522339693
Bq         0.0880337111    -3.2002262190    -0.8402359941
Bq         0.1677572387    -3.1469949167    -1.0157654435
Bq         0.0481719473    -3.2268418701    -0.7524712694
Bq         0.2076190025    -3.1203792656    -1.1035301682
Bq         0.0083101836    -3.2534575212    -0.6647065447
Bq         0.2474807663    -3.0937636145    -1.1912948929
Bq        -0.0315515802    -3.2800731723    -0.5769418200
Bq         0.2873425301    -3.0671479634    -1.2790596177
Bq        -0.0714133440    -3.3066888234    -0.4891770952
Bq         0.3272042939    -3.0405323123    -1.3668243424
Bq         0.1278954749    -3.1736105679    -0.9280007188
Bq         0.0770272378    -3.1038332362    -0.8160027436
Bq         0.1567507653    -3.0506019340    -0.9915321931
Bq         0.0371654740    -3.1304488874    -0.7282380189
Bq         0.1966125291    -3.0239862829    -1.0792969178
Bq        -0.0026962898    -3.1570645385    -0.6404732942
Bq         0.2364742929    -2.9973706318    -1.1670616425
Bq        -0.0425580536    -3.1836801896    -0.5527085695
Bq         0.2763360567    -2.9707549807    -1.2548263672
Bq        -0.0824198174    -3.2102958407    -0.4649438448
Bq         0.3161978205    -2.9441393296    -1.3425910919
Bq         0.1168890016    -3.0772175851    -0.9037674684
Bq         0.0660207644    -3.0074402535    -0.7917694932
Bq         0.1457442920    -2.9542089513    -0.9672989426
Bq         0.0261590006    -3.0340559046    -0.7040047685
Bq         0.1856060558    -2.9275933002    -1.0550636673
Bq        -0.0137027632    -3.0606715558    -0.6162400438
Bq         0.2254678195    -2.9009776491    -1.1428283920
Bq        -0.0535645270    -3.0872872069    -0.5284753190
Bq         0.2653295833    -2.8743619980    -1.2305931167
Bq        -0.0934262908    -3.1139028580    -0.4407105943
Bq         0.3051913471    -2.8477463469    -1.3183578415
Bq         0.1058825282    -2.9808246024    -0.8795342179
Bq         0.0550142910    -2.9110472708    -0.7675362427
Bq         0.1347378186    -2.8578159686    -0.9430656921
Bq         0.0151525272    -2.9376629219    -0.6797715180
Bq         0.1745995824    -2.8312003175    -1.0308304169
Bq        -0.0247092366    -2.9642785730    -0.5920067933
Bq         0.2144613462    -2.8045846664    -1.1185951416
Bq        -0.0645710003    -2.9908942241    -0.5042420686
Bq         0.2543231100    -2.7779690153    -1.2063598663
Bq        -0.1044327641    -3.0175098753    -0.4164773439
Bq         0.2941848737    -2.7513533642    -1.2941245910
Bq         0.0948760548    -2.8844316197    -0.8553009674
Bq         0.0440078176    -2.8146542881    -0.7433029923
Bq         0.1237313452    -2.7614229859    -0.9188324417
Bq         0.0041460539    -2.8412699392    -0.6555382676
Bq         0.1635931090    -2.7348073348    -1.0065971664
Bq        -0.0357157099    -2.8678855903    -0.5677735428
Bq         0.2034548728    -2.7081916837    -1.0943618911
Bq        -0.0755774737    -2.8945012414    -0.4800088181
Bq         0.2433166366    -2.6815760326    -1.1821266158
Bq        -0.1154392375    -2.9211168925    -0.3922440934
Bq         0.2831784004    -2.6549603815    -1.2698913405
Bq         0.0838695814    -2.7880386370    -0.8310677170
Bq         0.0330013443    -2.7182613054    -0.7190697418
Bq         0.1127248719    -2.6650300032    -0.8945991912
Bq        -0.0068604195    -2.7448769565    -0.6313050171
Bq         0.1525866356    -2.6384143521    -0.9823639159
Bq        -0.0467221833    -2.7714926076    -0.5435402924
Bq         0.1924483994    -2.6117987010    -1.0701286407
Bq        -0.0865839471    -2.7981082587    -0.4557755677
Bq         0.2323101632    -2.5851830499    -1.1578933654
Bq        -0.1264457109    -2.8247239098    -0.3680108430
Bq         0.2721719270    -2.5585673988    -1.2456580901
Bq         0.0728631081    -2.6916456543    -0.8068344665
Bq         0.0219948709    -2.6218683227    -0.6948364914
Bq         0.1017183985    -2.5686370205    -0.8703659408
Bq        -0.0178668929    -2.6484839738    -0.6070717666

1
2
3
4
5
6
7
8
9
10
11
12
13
14
15
16
17
18
19
20
21
22
23
24
25
26
27
28
29
30
31
32
33
34
35
36
37
38
39
40
41
42
43
44
45
46
47
48
49
50
51
52
53
54
55
56
57
58
59
60
61
62
63
64
65
66
67
68
69
70
71
72
73
74
75
76
77
78
79
80
81
82
83
84
85
86
87
88
89
90
91
92
93
94
95
96
97
98
99
100
101
102
103
104
105
106
107
108
109
110
111
112
113
114
115
116
117
118
119
120
121
122
123
124
125
126
127
128
129
130
131
132
133
134
135
136
137
138
139
140
141
142
143
144
145
146
147
148
149
150
151
152
153
154
155
156
157
158
159
160
161
162
163
164
165
166
167
168
169
170
171
172
173
174
175
176
177
178
179
180
181
182
183
184
185
186
187
188
189
190
191
192
193
194
195
196
197
198
199
200
201
202
203
204
205
206
207
208
209
210
211
212
213
214
215
216
217
218
219
220
221
222
223
224
225
226
227
228
229
230
231
232
233
234
235
236

