%nproc=8
%mem=1000MB
# rb3lyp/6-311+g** NMR geom=connectivity

Title

0 1
C    -4.0500558   -0.5771862    0.8136712
H    -5.0263804   -1.0082727    1.0024760
C    -3.9381552    0.6617804    0.2400876
H    -4.8252424    1.2338890   -0.0111295
C    -2.6768410    1.2433246    0.0057578
C    -1.4974121    0.5051527    0.2848253
C    -1.6508332   -0.7338728    0.9404026
H    -0.7713646   -1.2730967    1.2633753
C    -2.8898548   -1.2624035    1.1994307
H    -2.9683706   -2.2124563    1.7152676
C    -2.5773185    2.5963696   -0.4192930
H    -3.4870728    3.1412239   -0.6474055
C    -1.3741895    3.2147896   -0.4364030
H    -1.2997315    4.2742019   -0.6578144
C    -0.1719488    2.4994090   -0.1734588
C    -0.2043917    1.1018437    0.0192689
C     1.0513491    3.2042560   -0.0676222
H     1.0427344    4.2819499   -0.1896997
C     2.1942091    2.5487446    0.2579577
H     3.1168527    3.0912848    0.4334727
C     2.2216473    1.1336562    0.2934990
C     1.0486931    0.3945528    0.0302412
C     3.4483363    0.4614633    0.5573939
H     4.3095794    1.0606054    0.8334846
C     3.5427346   -0.8855926    0.4749463
H     4.4731467   -1.3939704    0.7038822
C     2.4490052   -1.6474447   -0.0196319
C     1.2150704   -1.0057258   -0.3013573
C     0.2531113   -1.7434440   -1.0216591
H    -0.6541356   -1.2535051   -1.3462847
C     0.4494193   -3.0628597   -1.3413779
H    -0.3083162   -3.5944309   -1.9054060
C     1.6251726   -3.7207967   -0.9552541
H     1.7670048   -4.7687404   -1.1927019
C     2.6109872   -3.0144177   -0.3183050
H     3.5525612   -3.4902813   -0.0646367
Bq         4.3576407292    -0.7110232123     1.0706693375
Bq         4.2806041362    -0.7537061893     1.3574506598
Bq         4.3833195935    -0.6967955532     0.9750755634
Bq         4.2549252719    -0.7679338484     1.4530444339
Bq         4.4089984579    -0.6825678942     0.8794817893
Bq         4.2292464076    -0.7821615074     1.5486382080
Bq         4.4346773222    -0.6683402352     0.7838880152
Bq         4.2035675433    -0.7963891664     1.6442319821
Bq         4.4603561865    -0.6541125761     0.6882942411
Bq         4.3319618649    -0.7252508713     1.1662631116
Bq         4.3025919500    -0.6404958363     1.2755974252
Bq         4.3539496787    -0.6120405182     1.0844098771
Bq         4.2769130857    -0.6547234953     1.3711911993
Bq         4.3796285430    -0.5978128592     0.9888161030
Bq         4.2512342214    -0.6689511543     1.4667849734
Bq         4.4053074073    -0.5835852002     0.8932223289
Bq         4.2255553571    -0.6831788134     1.5623787475
Bq         4.4309862716    -0.5693575411     0.7976285548
Bq         4.1998764927    -0.6974064724     1.6579725216
Bq         4.4566651360    -0.5551298821     0.7020347807
Bq         4.3282708144    -0.6262681772     1.1800036512
Bq         4.2989008995    -0.5415131422     1.2893379648
Bq         4.3502586281    -0.5130578242     1.0981504166
Bq         4.2732220352    -0.5557408013     1.3849317389
Bq         4.3759374925    -0.4988301652     1.0025566425
Bq         4.2475431708    -0.5699684603     1.4805255130
Bq         4.4016163568    -0.4846025061     0.9069628684
Bq         4.2218643065    -0.5841961193     1.5761192871
Bq         4.4272952211    -0.4703748471     0.8113690943
Bq         4.1961854422    -0.5984237784     1.6717130612
Bq         4.4529740854    -0.4561471881     0.7157753202
Bq         4.3245797638    -0.5272854832     1.1937441907
Bq         4.2952098490    -0.4425304482     1.3030785044
Bq         4.3465675776    -0.4140751301     1.1118909562
Bq         4.2695309846    -0.4567581072     1.3986722785
Bq         4.3722464419    -0.3998474711     1.0162971821
Bq         4.2438521203    -0.4709857663     1.4942660526
Bq         4.3979253062    -0.3856198121     0.9207034080
Bq         4.2181732560    -0.4852134253     1.5898598267
Bq         4.4236041706    -0.3713921531     0.8251096339
Bq         4.1924943917    -0.4994410843     1.6854536007
Bq         4.4492830349    -0.3571644940     0.7295158598
Bq         4.3208887133    -0.4283027892     1.2074847303
Bq         4.2915187984    -0.3435477542     1.3168190439
Bq         4.3428765271    -0.3150924361     1.1256314957
Bq         4.2658399341    -0.3577754132     1.4124128180
Bq         4.3685553914    -0.3008647771     1.0300377216
Bq         4.2401610698    -0.3720030722     1.5080065921
Bq         4.3942342557    -0.2866371181     0.9344439475
Bq         4.2144822055    -0.3862307313     1.6036003662
Bq         4.4199131200    -0.2724094590     0.8388501735
Bq         4.1888033411    -0.4004583903     1.6991941403
Bq         4.4455919844    -0.2581818000     0.7432563994
Bq         4.3171976627    -0.3293200951     1.2212252698
Bq         4.2878277479    -0.2445650601     1.3305595835
Bq         4.3391854765    -0.2161097421     1.1393720353
Bq         4.2621488836    -0.2587927192     1.4261533576
Bq         4.3648643409    -0.2018820830     1.0437782612
Bq         4.2364700192    -0.2730203782     1.5217471317
Bq         4.3905432052    -0.1876544240     0.9481844871
Bq         4.2107911549    -0.2872480372     1.6173409058
Bq         4.4162220695    -0.1734267650     0.8525907130
Bq         4.1851122906    -0.3014756962     1.7129346799
Bq         4.4419009338    -0.1591991060     0.7569969389
Bq         4.3135066122    -0.2303374011     1.2349658094
Bq         4.2841366974    -0.1455823661     1.3443001230
Bq         4.3354944260    -0.1171270480     1.1531125749
Bq         4.2584578330    -0.1598100251     1.4398938971
Bq         4.3611732903    -0.1028993890     1.0575188008
Bq         4.2327789687    -0.1740376842     1.5354876712
Bq         4.3868521546    -0.0886717300     0.9619250267
Bq         4.2071001044    -0.1882653432     1.6310814453
Bq         4.4125310190    -0.0744440710     0.8663312526
Bq         4.1814212401    -0.2024930022     1.7266752194
Bq         4.4382098833    -0.0602164119     0.7707374785
Bq         4.3098155617    -0.1313547071     1.2487063489
Bq         4.2804456468    -0.0465996721     1.3580406626
Bq         4.3318033755    -0.0181443540     1.1668531144
Bq         4.2547667825    -0.0608273311     1.4536344367
Bq         4.3574822398    -0.0039166950     1.0712593403
Bq         4.2290879182    -0.0750549901     1.5492282108
Bq         4.3831611041     0.0103109641     0.9756655662
Bq         4.2034090538    -0.0892826491     1.6448219849
Bq         4.4088399684     0.0245386231     0.8800717921
Bq         4.1777301895    -0.1035103082     1.7404157590
Bq         4.4345188328     0.0387662821     0.7844780180
Bq         4.3061245111    -0.0323720130     1.2624468885
Bq         4.2767545963     0.0523830220     1.3717812022
Bq         4.3281123249     0.0808383400     1.1805936540
Bq         4.2510757320     0.0381553629     1.4673749763
Bq         4.3537911892     0.0950659991     1.0849998799
Bq         4.2253968676     0.0239277039     1.5629687504
Bq         4.3794700536     0.1092936581     0.9894061058
Bq         4.1997180033     0.0097000449     1.6585625244
Bq         4.4051489179     0.1235213171     0.8938123317
Bq         4.1740391390    -0.0045276141     1.7541562985
Bq         4.4308277822     0.1377489761     0.7982185576
Bq         4.3024334606     0.0666106810     1.2761874281
Bq         4.2730635457     0.1513657160     1.3855217417
Bq         4.3244212744     0.1798210341     1.1943341935
Bq         4.2473846814     0.1371380570     1.4811155158
Bq         4.3501001387     0.1940486931     1.0987404194
Bq         4.2217058171     0.1229103980     1.5767092899
Bq         4.3757790030     0.2082763521     1.0031466453
Bq         4.1960269528     0.1086827389     1.6723030640
Bq         4.4014578674     0.2225040112     0.9075528712
Bq         4.1703480885     0.0944550799     1.7678968381
Bq         4.4271367317     0.2367316702     0.8119590972
Bq         4.2987424101     0.1655933750     1.2899279676
Bq         4.2693724952     0.2503484100     1.3992622813
Bq         4.3207302239     0.2788037281     1.2080747331
Bq         4.2436936309     0.2361207510     1.4948560554
Bq         4.3464090882     0.2930313871     1.1124809590
Bq         4.2180147666     0.2218930920     1.5904498295
Bq         4.3720879525     0.3072590462     1.0168871849
Bq         4.1923359022     0.2076654330     1.6860436036
Bq         4.3977668168     0.3214867052     0.9212934108
Bq         4.1666570379     0.1934377739     1.7816373777
Bq         4.4234456811     0.3357143642     0.8256996367
Bq         4.2950513595     0.2645760691     1.3036685072
Bq         4.2656814447     0.3493311041     1.4130028208
Bq         4.3170391733     0.3777864221     1.2218152726
Bq         4.2400025804     0.3351034451     1.5085965949
Bq         4.3427180376     0.3920140812     1.1262214986
Bq         4.2143237160     0.3208757860     1.6041903690
Bq         4.3683969020     0.4062417402     1.0306277245
Bq         4.1886448517     0.3066481270     1.6997841431
Bq         4.3940757663     0.4204693992     0.9350339504
Bq         4.1629659874     0.2924204680     1.7953779172
Bq         4.4197546306     0.4346970583     0.8394401763
Bq         4.2913603090     0.3635587631     1.3174090467
Bq         4.2619903941     0.4483137981     1.4267433604
Bq         4.3133481228     0.4767691162     1.2355558122
Bq         4.2363115298     0.4340861391     1.5223371345
Bq         4.3390269871     0.4909967752     1.1399620381
Bq         4.2106326655     0.4198584801     1.6179309086
Bq         4.3647058514     0.5052244342     1.0443682640
Bq         4.1849538012     0.4056308210     1.7135246827
Bq         4.3903847158     0.5194520933     0.9487744899
Bq         4.1592749368     0.3914031620     1.8091184568
Bq         4.4160635801     0.5336797523     0.8531807158
Bq         4.2876692585     0.4625414571     1.3311495863
Bq         4.2582993436     0.5472964922     1.4404839000
Bq         4.3096570722     0.5757518102     1.2492963518
Bq         4.2326204793     0.5330688331     1.5360776741
Bq         4.3353359366     0.5899794692     1.1537025777
Bq         4.2069416150     0.5188411741     1.6316714481
Bq         4.3610148009     0.6042071283     1.0581088036
Bq         4.1812627506     0.5046135151     1.7272652222
Bq         4.3866936652     0.6184347873     0.9625150295
Bq         4.1555838863     0.4903858560     1.8228589963
Bq         4.4123725295     0.6326624463     0.8669212554
Bq         4.2839782079     0.5615241512     1.3448901259
Bq         4.2546082931     0.6462791862     1.4542244395
Bq         4.3059660217     0.6747345042     1.2630368913
Bq         4.2289294287     0.6320515272     1.5498182136
Bq         4.3316448860     0.6889621633     1.1674431172
Bq         4.2032505644     0.6178238681     1.6454119877
Bq         4.3573237504     0.7031898223     1.0718493431
Bq         4.1775717001     0.6035962091     1.7410057618
Bq         4.3830026147     0.7174174813     0.9762555690
Bq         4.1518928358     0.5893685501     1.8365995359
Bq         4.4086814790     0.7316451404     0.8806617949
Bq         4.2802871574     0.6605068452     1.3586306654
Bq         4.2509172425     0.7452618802     1.4679649791
Bq         4.3022749712     0.7737171983     1.2767774309
Bq         4.2252383782     0.7310342212     1.5635587532
Bq         4.3279538355     0.7879448573     1.1811836568
Bq         4.1995595139     0.7168065622     1.6591525273
Bq         4.3536326998     0.8021725163     1.0855898827
Bq         4.1738806496     0.7025789031     1.7547463014
Bq         4.3793115641     0.8164001754     0.9899961086
Bq         4.1482017852     0.6883512441     1.8503400755
Bq         4.4049904285     0.8306278344     0.8944023345
Bq         4.2765961069     0.7594895393     1.3723712050
Bq         4.2472261920     0.8442445743     1.4817055186
Bq         4.2985839206     0.8726998923     1.2905179704
Bq         4.2215473277     0.8300169152     1.5772992927
Bq         4.3242627850     0.8869275513     1.1949241963
Bq         4.1958684634     0.8157892562     1.6728930668
Bq         4.3499416493     0.9011552104     1.0993304223
Bq         4.1701895990     0.8015615972     1.7684868409
Bq         4.3756205136     0.9153828694     1.0037366482
Bq         4.1445107347     0.7873339381     1.8640806150
Bq         4.4012993779     0.9296105284     0.9081428741
Bq         4.2729050563     0.8584722333     1.3861117445
Bq         4.2435351415     0.9432272683     1.4954460582
Bq         4.2948928701     0.9716825864     1.3042585100
Bq         4.2178562771     0.9289996093     1.5910398323
Bq         4.3205717344     0.9859102454     1.2086647359
Bq         4.1921774128     0.9147719502     1.6866336064
Bq         4.3462505988     1.0001379044     1.1130709618
Bq         4.1664985485     0.9005442912     1.7822273805
Bq         4.3719294631     1.0143655634     1.0174771877
Bq         4.1408196842     0.8863166322     1.8778211546
Bq         4.3976083274     1.0285932225     0.9218834136
Bq         4.2692140058     0.9574549273     1.3998522841
Bq         4.2398440909     1.0422099623     1.5091865978
Bq         4.2912018196     1.0706652804     1.3179990496
Bq         4.2141652266     1.0279823033     1.6047803718

1
2
3
4
5
6
7
8
9
10
11
12
13
14
15
16
17
18
19
20
21
22
23
24
25
26
27
28
29
30
31
32
33
34
35
36
37
38
39
40
41
42
43
44
45
46
47
48
49
50
51
52
53
54
55
56
57
58
59
60
61
62
63
64
65
66
67
68
69
70
71
72
73
74
75
76
77
78
79
80
81
82
83
84
85
86
87
88
89
90
91
92
93
94
95
96
97
98
99
100
101
102
103
104
105
106
107
108
109
110
111
112
113
114
115
116
117
118
119
120
121
122
123
124
125
126
127
128
129
130
131
132
133
134
135
136
137
138
139
140
141
142
143
144
145
146
147
148
149
150
151
152
153
154
155
156
157
158
159
160
161
162
163
164
165
166
167
168
169
170
171
172
173
174
175
176
177
178
179
180
181
182
183
184
185
186
187
188
189
190
191
192
193
194
195
196
197
198
199
200
201
202
203
204
205
206
207
208
209
210
211
212
213
214
215
216
217
218
219
220
221
222
223
224
225
226
227
228
229
230
231
232
233
234
235
236

