%nproc=8
%mem=1000MB
# rb3lyp/6-311+g** NMR geom=connectivity

Title

0 1
C    -4.0500558   -0.5771862    0.8136712
H    -5.0263804   -1.0082727    1.0024760
C    -3.9381552    0.6617804    0.2400876
H    -4.8252424    1.2338890   -0.0111295
C    -2.6768410    1.2433246    0.0057578
C    -1.4974121    0.5051527    0.2848253
C    -1.6508332   -0.7338728    0.9404026
H    -0.7713646   -1.2730967    1.2633753
C    -2.8898548   -1.2624035    1.1994307
H    -2.9683706   -2.2124563    1.7152676
C    -2.5773185    2.5963696   -0.4192930
H    -3.4870728    3.1412239   -0.6474055
C    -1.3741895    3.2147896   -0.4364030
H    -1.2997315    4.2742019   -0.6578144
C    -0.1719488    2.4994090   -0.1734588
C    -0.2043917    1.1018437    0.0192689
C     1.0513491    3.2042560   -0.0676222
H     1.0427344    4.2819499   -0.1896997
C     2.1942091    2.5487446    0.2579577
H     3.1168527    3.0912848    0.4334727
C     2.2216473    1.1336562    0.2934990
C     1.0486931    0.3945528    0.0302412
C     3.4483363    0.4614633    0.5573939
H     4.3095794    1.0606054    0.8334846
C     3.5427346   -0.8855926    0.4749463
H     4.4731467   -1.3939704    0.7038822
C     2.4490052   -1.6474447   -0.0196319
C     1.2150704   -1.0057258   -0.3013573
C     0.2531113   -1.7434440   -1.0216591
H    -0.6541356   -1.2535051   -1.3462847
C     0.4494193   -3.0628597   -1.3413779
H    -0.3083162   -3.5944309   -1.9054060
C     1.6251726   -3.7207967   -0.9552541
H     1.7670048   -4.7687404   -1.1927019
C     2.6109872   -3.0144177   -0.3183050
H     3.5525612   -3.4902813   -0.0646367
Bq         0.6685056281     0.1649319061     1.1018874757
Bq         0.8132651586     0.1157970553     0.1136413299
Bq         0.7408853934     0.1403644807     0.6077644028
Bq         0.7271215743     0.2451571811     0.7017274126
Bq         0.7560734803     0.2353302110     0.5040781834
Bq         0.7126456212     0.2500706662     0.8005520272
Bq         0.7705494334     0.2304167259     0.4052535689
Bq         0.6981696682     0.2549841513     0.8993766418
Bq         0.7850253864     0.2255032408     0.3064289543
Bq         0.6836937151     0.2598976364     0.9982012564
Bq         0.7995013395     0.2205897557     0.2076043397
Bq         0.6692177621     0.2648111215     1.0970258709
Bq         0.8139772925     0.2156762706     0.1087797251
Bq         0.7415975273     0.2402436960     0.6029027980
Bq         0.7278337082     0.3450363965     0.6968658078
Bq         0.7567856143     0.3352094263     0.4992165787
Bq         0.7133577552     0.3499498816     0.7956904224
Bq         0.7712615673     0.3302959413     0.4003919641
Bq         0.6988818021     0.3548633667     0.8945150370
Bq         0.7857375204     0.3253824562     0.3015673495
Bq         0.6844058491     0.3597768518     0.9933396516
Bq         0.8002134734     0.3204689711     0.2027427349
Bq         0.6699298960     0.3646903368     1.0921642662
Bq         0.8146894265     0.3155554860     0.1039181203
Bq         0.7423096612     0.3401229114     0.5980411933
Bq         0.7285458421     0.4449156119     0.6920042031
Bq         0.7574977482     0.4350886417     0.4943549739
Bq         0.7140698891     0.4498290970     0.7908288177
Bq         0.7719737013     0.4301751566     0.3955303593
Bq         0.6995939361     0.4547425820     0.8896534322
Bq         0.7864496543     0.4252616716     0.2967057447
Bq         0.6851179830     0.4596560671     0.9884780468
Bq         0.8009256074     0.4203481865     0.1978811302
Bq         0.6706420300     0.4645695522     1.0873026614
Bq         0.8154015604     0.4154347014     0.0990565156
Bq         0.7430217952     0.4400021268     0.5931795885
Bq         0.7292579761     0.5447948273     0.6871425983
Bq         0.7582098822     0.5349678571     0.4894933691
Bq         0.7147820230     0.5497083123     0.7859672129
Bq         0.7726858352     0.5300543720     0.3906687546
Bq         0.7003060700     0.5546217974     0.8847918275
Bq         0.7871617883     0.5251408869     0.2918441400
Bq         0.6858301169     0.5595352825     0.9836164421
Bq         0.8016377413     0.5202274018     0.1930195254
Bq         0.6713541639     0.5644487676     1.0824410566
Bq         0.8161136943     0.5153139168     0.0941949108
Bq         0.7437339291     0.5398813422     0.5883179837
Bq         0.7299701100     0.6446740426     0.6822809935
Bq         0.7589220161     0.6348470725     0.4846317644
Bq         0.7154941570     0.6495875277     0.7811056081
Bq         0.7733979692     0.6299335874     0.3858071498
Bq         0.7010182039     0.6545010128     0.8799302227
Bq         0.7878739222     0.6250201023     0.2869825352
Bq         0.6865422509     0.6594144979     0.9787548373
Bq         0.8023498752     0.6201066172     0.1881579206
Bq         0.6720662978     0.6643279830     1.0775794519
Bq         0.8168258283     0.6151931321     0.0893333060
Bq         0.7444460631     0.6397605576     0.5834563790
Bq         0.7306822440     0.7445532580     0.6774193888
Bq         0.7596341501     0.7347262878     0.4797701596
Bq         0.7162062909     0.7494667431     0.7762440034
Bq         0.7741101031     0.7298128028     0.3809455450
Bq         0.7017303379     0.7543802282     0.8750686179
Bq         0.7885860561     0.7248993177     0.2821209304
Bq         0.6872543848     0.7592937133     0.9738932325
Bq         0.8030620092     0.7199858326     0.1832963159
Bq         0.6727784318     0.7642071983     1.0727178471
Bq         0.8175379622     0.7150723475     0.0844717013
Bq         0.7451581970     0.7396397729     0.5785947742
Bq         0.7313943779     0.8444324734     0.6725577840
Bq         0.7603462840     0.8346055032     0.4749085548
Bq         0.7169184249     0.8493459585     0.7713823986
Bq         0.7748222370     0.8296920181     0.3760839403
Bq         0.7024424718     0.8542594436     0.8702070132
Bq         0.7892981901     0.8247785331     0.2772593257
Bq         0.6879665188     0.8591729286     0.9690316278
Bq         0.8037741431     0.8198650480     0.1784347111
Bq         0.6734905657     0.8640864137     1.0678562423
Bq         0.8182500962     0.8149515629     0.0796100965
Bq         0.7458703310     0.8395189883     0.5737331694
Bq         0.7321065118     0.9443116888     0.6676961792
Bq         0.7610584179     0.9344847186     0.4700469501
Bq         0.7176305588     0.9492251739     0.7665207938
Bq         0.7755343710     0.9295712335     0.3712223355
Bq         0.7031546058     0.9541386589     0.8653454084
Bq         0.7900103240     0.9246577484     0.2723977209
Bq         0.6886786527     0.9590521440     0.9641700230
Bq         0.8044862771     0.9197442634     0.1735731063
Bq         0.6742026997     0.9639656291     1.0629946376
Bq         0.8189622301     0.9148307783     0.0747484917
Bq         0.7465824649     0.9393982037     0.5688715647
Bq         0.7328186458     1.0441909041     0.6628345745
Bq         0.7617705519     1.0343639340     0.4651853453
Bq         0.7183426927     1.0491043892     0.7616591891
Bq         0.7762465049     1.0294504489     0.3663607307
Bq         0.7038667397     1.0540178743     0.8604838036
Bq         0.7907224580     1.0245369638     0.2675361161
Bq         0.6893907867     1.0589313594     0.9593084182
Bq         0.8051984110     1.0196234787     0.1687115016
Bq         0.6749148336     1.0638448445     1.0581330328
Bq         0.8196743641     1.0147099936     0.0698868870
Bq         0.7472945988     1.0392774191     0.5640099599
Bq         0.7335307797     1.1440701195     0.6579729697
Bq         0.7624826858     1.1342431494     0.4603237405
Bq         0.7190548267     1.1489836046     0.7567975843
Bq         0.7769586389     1.1293296643     0.3614991260
Bq         0.7045788736     1.1538970897     0.8556221989
Bq         0.7914345919     1.1244161792     0.2626745114
Bq         0.6901029206     1.1588105748     0.9544468135
Bq         0.8059105450     1.1195026941     0.1638498968
Bq         0.6756269676     1.1637240599     1.0532714281
Bq         0.8203864980     1.1145892090     0.0650252822
Bq         0.7480067328     1.1391566344     0.5591483551
Bq         0.7342429137     1.2439493349     0.6531113649
Bq         0.7631948198     1.2341223647     0.4554621358
Bq         0.7197669606     1.2488628200     0.7519359795
Bq         0.7776707728     1.2292088797     0.3566375212
Bq         0.7052910076     1.2537763051     0.8507605941
Bq         0.7921467259     1.2242953946     0.2578129066
Bq         0.6908150545     1.2586897901     0.9495852087
Bq         0.8066226789     1.2193819095     0.1589882920
Bq         0.6763391015     1.2636032752     1.0484098233
Bq         0.8210986319     1.2144684244     0.0601636774
Bq         0.7487188667     1.2390358498     0.5542867504
Bq         0.7349550476     1.3438285503     0.6482497602
Bq         0.7639069537     1.3340015801     0.4506005310
Bq         0.7204790946     1.3487420354     0.7470743748
Bq         0.7783829067     1.3290880950     0.3517759164
Bq         0.7060031415     1.3536555204     0.8458989893
Bq         0.7928588598     1.3241746099     0.2529513018
Bq         0.6915271885     1.3585690055     0.9447236039
Bq         0.8073348128     1.3192611249     0.1541266873
Bq         0.6770512354     1.3634824906     1.0435482185
Bq         0.8218107659     1.3143476398     0.0553020727
Bq         0.7494310007     1.3389150652     0.5494251456
Bq         0.7356671816     1.4437077657     0.6433881554
Bq         0.7646190876     1.4338807955     0.4457389262
Bq         0.7211912285     1.4486212507     0.7422127700
Bq         0.7790950407     1.4289673104     0.3469143117
Bq         0.7067152755     1.4535347358     0.8410373846
Bq         0.7935709937     1.4240538253     0.2480896971
Bq         0.6922393224     1.4584482209     0.9398619992
Bq         0.8080469468     1.4191403402     0.1492650825
Bq         0.6777633694     1.4633617060     1.0386866138
Bq         0.8225228998     1.4142268552     0.0504404679
Bq         0.7501431346     1.4387942806     0.5445635408
Bq         0.7363793155     1.5435869810     0.6385265506
Bq         0.7653312216     1.5337600109     0.4408773215
Bq         0.7219033625     1.5485004661     0.7373511652
Bq         0.7798071746     1.5288465258     0.3420527069
Bq         0.7074274094     1.5534139512     0.8361757798
Bq         0.7942831277     1.5239330407     0.2432280923
Bq         0.6929514564     1.5583274363     0.9350003944
Bq         0.8087590807     1.5190195556     0.1444034777
Bq         0.6784755033     1.5632409214     1.0338250090
Bq         0.8232350338     1.5141060705     0.0455788631
Bq         0.7508552685     1.5386734959     0.5397019361
Bq         0.7370914494     1.6434661964     0.6336649459
Bq         0.7660433555     1.6336392262     0.4360157167
Bq         0.7226154964     1.6483796815     0.7324895605
Bq         0.7805193086     1.6287257412     0.3371911021
Bq         0.7081395434     1.6532931666     0.8313141750
Bq         0.7949952616     1.6238122561     0.2383664875
Bq         0.6936635903     1.6582066517     0.9301387896
Bq         0.8094712147     1.6188987710     0.1395418730
Bq         0.6791876373     1.6631201367     1.0289634042
Bq         0.8239471677     1.6139852859     0.0407172584
Bq         0.7515674025     1.6385527113     0.5348403313
Bq         0.7378035834     1.7433454118     0.6288033411
Bq         0.7667554895     1.7335184416     0.4311541119
Bq         0.7233276303     1.7482588969     0.7276279557
Bq         0.7812314425     1.7286049565     0.3323294974
Bq         0.7088516773     1.7531723819     0.8264525703
Bq         0.7957073956     1.7236914715     0.2335048828
Bq         0.6943757243     1.7580858670     0.9252771849
Bq         0.8101833486     1.7187779864     0.1346802682
Bq         0.6798997712     1.7629993521     1.0241017995
Bq         0.8246593016     1.7138645013     0.0358556536
Bq         0.7522795364     1.7384319267     0.5299787265
Bq         0.7385157173     1.8432246272     0.6239417363
Bq         0.7674676234     1.8333976570     0.4262925072
Bq         0.7240397643     1.8481381122     0.7227663509
Bq         0.7819435765     1.8284841719     0.3274678926
Bq         0.7095638112     1.8530515973     0.8215909655
Bq         0.7964195295     1.8235706868     0.2286432780
Bq         0.6950878582     1.8579650824     0.9204155801
Bq         0.8108954825     1.8186572017     0.1298186634
Bq         0.6806119051     1.8628785675     1.0192401947
Bq         0.8253714356     1.8137437167     0.0309940488
Bq         0.7529916704     1.8383111421     0.5251171218
Bq         0.7392278513     1.9431038425     0.6190801316
Bq         0.7681797574     1.9332768724     0.4214309024
Bq         0.7247518982     1.9480173276     0.7179047462
Bq         0.7826557104     1.9283633873     0.3226062878
Bq         0.7102759452     1.9529308127     0.8167293607
Bq         0.7971316634     1.9234499022     0.2237816732
Bq         0.6957999921     1.9578442978     0.9155539753
Bq         0.8116076165     1.9185364171     0.1249570587
Bq         0.6813240391     1.9627577829     1.0143785899
Bq         0.8260835695     1.9136229320     0.0261324441

1
2
3
4
5
6
7
8
9
10
11
12
13
14
15
16
17
18
19
20
21
22
23
24
25
26
27
28
29
30
31
32
33
34
35
36
37
38
39
40
41
42
43
44
45
46
47
48
49
50
51
52
53
54
55
56
57
58
59
60
61
62
63
64
65
66
67
68
69
70
71
72
73
74
75
76
77
78
79
80
81
82
83
84
85
86
87
88
89
90
91
92
93
94
95
96
97
98
99
100
101
102
103
104
105
106
107
108
109
110
111
112
113
114
115
116
117
118
119
120
121
122
123
124
125
126
127
128
129
130
131
132
133
134
135
136
137
138
139
140
141
142
143
144
145
146
147
148
149
150
151
152
153
154
155
156
157
158
159
160
161
162
163
164
165
166
167
168
169
170
171
172
173
174
175
176
177
178
179
180
181
182
183
184
185
186
187
188
189
190
191
192
193
194
195
196
197
198
199
200
201
202
203
204
205
206
207
208
209
210
211
212
213
214
215
216
217
218
219
220
221
222
223
224
225
226
227
228
229
230
231
232
233
234
235
236

