%nproc=8
%mem=1000MB
# rb3lyp/6-311+g** NMR geom=connectivity

Title

0 1
C    -4.0500558   -0.5771862    0.8136712
H    -5.0263804   -1.0082727    1.0024760
C    -3.9381552    0.6617804    0.2400876
H    -4.8252424    1.2338890   -0.0111295
C    -2.6768410    1.2433246    0.0057578
C    -1.4974121    0.5051527    0.2848253
C    -1.6508332   -0.7338728    0.9404026
H    -0.7713646   -1.2730967    1.2633753
C    -2.8898548   -1.2624035    1.1994307
H    -2.9683706   -2.2124563    1.7152676
C    -2.5773185    2.5963696   -0.4192930
H    -3.4870728    3.1412239   -0.6474055
C    -1.3741895    3.2147896   -0.4364030
H    -1.2997315    4.2742019   -0.6578144
C    -0.1719488    2.4994090   -0.1734588
C    -0.2043917    1.1018437    0.0192689
C     1.0513491    3.2042560   -0.0676222
H     1.0427344    4.2819499   -0.1896997
C     2.1942091    2.5487446    0.2579577
H     3.1168527    3.0912848    0.4334727
C     2.2216473    1.1336562    0.2934990
C     1.0486931    0.3945528    0.0302412
C     3.4483363    0.4614633    0.5573939
H     4.3095794    1.0606054    0.8334846
C     3.5427346   -0.8855926    0.4749463
H     4.4731467   -1.3939704    0.7038822
C     2.4490052   -1.6474447   -0.0196319
C     1.2150704   -1.0057258   -0.3013573
C     0.2531113   -1.7434440   -1.0216591
H    -0.6541356   -1.2535051   -1.3462847
C     0.4494193   -3.0628597   -1.3413779
H    -0.3083162   -3.5944309   -1.9054060
C     1.6251726   -3.7207967   -0.9552541
H     1.7670048   -4.7687404   -1.1927019
C     2.6109872   -3.0144177   -0.3183050
H     3.5525612   -3.4902813   -0.0646367
Bq         1.0955654903    -1.6579384956     0.0850900524
Bq         1.1752890178    -1.6047071934    -0.0904393970
Bq         1.0557037265    -1.6845541467     0.1728547771
Bq         1.2151507816    -1.5780915422    -0.1782041217
Bq         1.0158419627    -1.7111697978     0.2606195018
Bq         1.2550125454    -1.5514758911    -0.2659688465
Bq         0.9759801989    -1.7377854489     0.3483842265
Bq         1.2948743092    -1.5248602400    -0.3537335712
Bq         0.9361184351    -1.7644011000     0.4361489512
Bq         1.3347360730    -1.4982445889    -0.4414982959
Bq         1.1354272540    -1.6313228445    -0.0026746723
Bq         1.0845590169    -1.5615455129     0.1093233029
Bq         1.1642825445    -1.5083142106    -0.0662061466
Bq         1.0446972531    -1.5881611640     0.1970880276
Bq         1.2041443082    -1.4816985595    -0.1539708713
Bq         1.0048354893    -1.6147768151     0.2848527523
Bq         1.2440060720    -1.4550829084    -0.2417355960
Bq         0.9649737255    -1.6413924662     0.3726174770
Bq         1.2838678358    -1.4284672573    -0.3295003207
Bq         0.9251119617    -1.6680081173     0.4603822017
Bq         1.3237295996    -1.4018516062    -0.4172650454
Bq         1.1244207807    -1.5349298617     0.0215585781
Bq         1.0735525435    -1.4651525301     0.1335565533
Bq         1.1532760711    -1.4119212279    -0.0419728961
Bq         1.0336907797    -1.4917681812     0.2213212780
Bq         1.1931378349    -1.3853055768    -0.1297376208
Bq         0.9938290159    -1.5183838324     0.3090860027
Bq         1.2329995987    -1.3586899257    -0.2175023455
Bq         0.9539672522    -1.5449994835     0.3968507275
Bq         1.2728613625    -1.3320742746    -0.3052670702
Bq         0.9141054884    -1.5716151346     0.4846154522
Bq         1.3127231262    -1.3054586235    -0.3930317950
Bq         1.1134143073    -1.4385368790     0.0457918286
Bq         1.0625460701    -1.3687595474     0.1577898038
Bq         1.1422695977    -1.3155282452    -0.0177396457
Bq         1.0226843064    -1.3953751985     0.2455545285
Bq         1.1821313615    -1.2889125941    -0.1055043704
Bq         0.9828225426    -1.4219908496     0.3333192532
Bq         1.2219931253    -1.2622969430    -0.1932690951
Bq         0.9429607788    -1.4486065008     0.4210839779
Bq         1.2618548891    -1.2356812919    -0.2810338198
Bq         0.9030990150    -1.4752221519     0.5088487026
Bq         1.3017166529    -1.2090656408    -0.3687985445
Bq         1.1024078339    -1.3421438963     0.0700250791
Bq         1.0515395968    -1.2723665647     0.1820230542
Bq         1.1312631243    -1.2191352625     0.0064936048
Bq         1.0116778330    -1.2989822158     0.2697877789
Bq         1.1711248881    -1.1925196114    -0.0812711199
Bq         0.9718160692    -1.3255978669     0.3575525037
Bq         1.2109866519    -1.1659039603    -0.1690358446
Bq         0.9319543054    -1.3522135180     0.4453172284
Bq         1.2508484157    -1.1392883092    -0.2568005693
Bq         0.8920925416    -1.3788291691     0.5330819531
Bq         1.2907101795    -1.1126726581    -0.3445652940
Bq         1.0914013606    -1.2457509136     0.0942583295
Bq         1.0405331234    -1.1759735820     0.2062563047
Bq         1.1202566510    -1.1227422798     0.0307268553
Bq         1.0006713596    -1.2025892331     0.2940210294
Bq         1.1601184148    -1.0961266287    -0.0570378694
Bq         0.9608095958    -1.2292048842     0.3817857541
Bq         1.1999801785    -1.0695109776    -0.1448025942
Bq         0.9209478320    -1.2558205353     0.4695504788
Bq         1.2398419423    -1.0428953265    -0.2325673189
Bq         0.8810860682    -1.2824361864     0.5573152035
Bq         1.2797037061    -1.0162796754    -0.3203320436
Bq         1.0803948872    -1.1493579309     0.1184915800
Bq         1.0295266500    -1.0795805993     0.2304895551
Bq         1.1092501776    -1.0263492971     0.0549601057
Bq         0.9896648862    -1.1061962504     0.3182542799
Bq         1.1491119414    -0.9997336460    -0.0328046190
Bq         0.9498031225    -1.1328119015     0.4060190046
Bq         1.1889737052    -0.9731179949    -0.1205693437
Bq         0.9099413587    -1.1594275526     0.4937837293
Bq         1.2288354690    -0.9465023438    -0.2083340684
Bq         0.8700795949    -1.1860432037     0.5815484540
Bq         1.2686972328    -0.9198866927    -0.2960987931
Bq         1.0693884138    -1.0529649482     0.1427248304
Bq         1.0185201767    -0.9831876166     0.2547228056
Bq         1.0982437042    -0.9299563144     0.0791933562
Bq         0.9786584129    -1.0098032677     0.3424875303
Bq         1.1381054680    -0.9033406633    -0.0085713685
Bq         0.9387966491    -1.0364189188     0.4302522550
Bq         1.1779672318    -0.8767250122    -0.0963360932
Bq         0.8989348853    -1.0630345699     0.5180169797
Bq         1.2178289956    -0.8501093610    -0.1841008180
Bq         0.8590731215    -1.0896502210     0.6057817045
Bq         1.2576907594    -0.8234937099    -0.2718655427
Bq         1.0583819404    -0.9565719655     0.1669580809
Bq         1.0075137033    -0.8867946339     0.2789560561
Bq         1.0872372309    -0.8335633317     0.1034266066
Bq         0.9676519395    -0.9134102850     0.3667207808
Bq         1.1270989946    -0.8069476805     0.0156618819
Bq         0.9277901757    -0.9400259361     0.4544855055
Bq         1.1669607584    -0.7803320294    -0.0721028428
Bq         0.8879284119    -0.9666415872     0.5422502302
Bq         1.2068225222    -0.7537163783    -0.1598675675
Bq         0.8480666481    -0.9932572383     0.6300149549
Bq         1.2466842860    -0.7271007272    -0.2476322922
Bq         1.0473754671    -0.8601789828     0.1911913313
Bq         0.9965072299    -0.7904016512     0.3031893065
Bq         1.0762307575    -0.7371703489     0.1276598571
Bq         0.9566454661    -0.8170173023     0.3909540312
Bq         1.1160925213    -0.7105546978     0.0398951324
Bq         0.9167837023    -0.8436329534     0.4787187559
Bq         1.1559542851    -0.6839390467    -0.0478695923
Bq         0.8769219385    -0.8702486045     0.5664834807
Bq         1.1958160488    -0.6573233956    -0.1356343170
Bq         0.8370601748    -0.8968642556     0.6542482054
Bq         1.2356778126    -0.6307077445    -0.2233990418
Bq         1.0363689937    -0.7637860000     0.2154245818
Bq         0.9855007565    -0.6940086684     0.3274225570
Bq         1.0652242841    -0.6407773662     0.1518931076
Bq         0.9456389928    -0.7206243196     0.4151872817
Bq         1.1050860479    -0.6141617151     0.0641283828
Bq         0.9057772290    -0.7472399707     0.5029520064
Bq         1.1449478117    -0.5875460640    -0.0236363419
Bq         0.8659154652    -0.7738556218     0.5907167311
Bq         1.1848095755    -0.5609304129    -0.1114010666
Bq         0.8260537014    -0.8004712729     0.6784814558
Bq         1.2246713393    -0.5343147618    -0.1991657913
Bq         1.0253625203    -0.6673930173     0.2396578323
Bq         0.9744942832    -0.5976156857     0.3516558074
Bq         1.0542178107    -0.5443843835     0.1761263580
Bq         0.9346325194    -0.6242313368     0.4394205321
Bq         1.0940795745    -0.5177687324     0.0883616333
Bq         0.8947707556    -0.6508469879     0.5271852569
Bq         1.1339413383    -0.4911530813     0.0005969086
Bq         0.8549089918    -0.6774626391     0.6149499816
Bq         1.1738031021    -0.4645374302    -0.0871678161
Bq         0.8150472280    -0.7040782902     0.7027147063
Bq         1.2136648659    -0.4379217791    -0.1749325408
Bq         1.0143560470    -0.5710000346     0.2638910827
Bq         0.9634878098    -0.5012227030     0.3758890579
Bq         1.0432113374    -0.4479914008     0.2003596085
Bq         0.9236260460    -0.5278383541     0.4636537826
Bq         1.0830731012    -0.4213757497     0.1125948838
Bq         0.8837642822    -0.5544540052     0.5514185073
Bq         1.1229348649    -0.3947600986     0.0248301590
Bq         0.8439025184    -0.5810696563     0.6391832320
Bq         1.1627966287    -0.3681444475    -0.0629345657
Bq         0.8040407546    -0.6076853074     0.7269479567
Bq         1.2026583925    -0.3415287964    -0.1506992904
Bq         1.0033495736    -0.4746070519     0.2881243332
Bq         0.9524813364    -0.4048297203     0.4001223084
Bq         1.0322048640    -0.3515984181     0.2245928589
Bq         0.9126195726    -0.4314453714     0.4878870331
Bq         1.0720666278    -0.3249827670     0.1368281342
Bq         0.8727578088    -0.4580610225     0.5756517578
Bq         1.1119283916    -0.2983671159     0.0490634095
Bq         0.8328960451    -0.4846766736     0.6634164825
Bq         1.1517901554    -0.2717514648    -0.0387013152
Bq         0.7930342813    -0.5112923247     0.7511812072
Bq         1.1916519191    -0.2451358137    -0.1264660399
Bq         0.9923431002    -0.3782140692     0.3123575836
Bq         0.9414748631    -0.3084367376     0.4243555588
Bq         1.0211983906    -0.2552054354     0.2488261094
Bq         0.9016130993    -0.3350523887     0.5121202835
Bq         1.0610601544    -0.2285897843     0.1610613847
Bq         0.8617513355    -0.3616680398     0.5998850082
Bq         1.1009219182    -0.2019741332     0.0732966600
Bq         0.8218895717    -0.3882836909     0.6876497329
Bq         1.1407836820    -0.1753584821    -0.0144680648
Bq         0.7820278079    -0.4148993420     0.7754144577
Bq         1.1806454458    -0.1487428310    -0.1022327895
Bq         0.9813366268    -0.2818210865     0.3365908341
Bq         0.9304683897    -0.2120437549     0.4485888093
Bq         1.0101919173    -0.1588124527     0.2730593598
Bq         0.8906066259    -0.2386594060     0.5363535340
Bq         1.0500536810    -0.1321968016     0.1852946351
Bq         0.8507448621    -0.2652750571     0.6241182587
Bq         1.0899154448    -0.1055811505     0.0975299104
Bq         0.8108830983    -0.2918907082     0.7118829834
Bq         1.1297772086    -0.0789654993     0.0097651857
Bq         0.7710213345    -0.3185063593     0.7996477081
Bq         1.1696389724    -0.0523498482    -0.0779995390
Bq         0.9703301535    -0.1854281038     0.3608240846
Bq         0.9194619163    -0.1156507722     0.4728220597
Bq         0.9991854439    -0.0624194700     0.2972926103
Bq         0.8796001525    -0.1422664233     0.5605867844
Bq         1.0390472077    -0.0358038189     0.2095278856
Bq         0.8397383887    -0.1688820744     0.6483515092
Bq         1.0789089715    -0.0091881677     0.1217631609
Bq         0.7998766249    -0.1954977255     0.7361162339
Bq         1.1187707352     0.0174274834     0.0339984362
Bq         0.7600148612    -0.2221133766     0.8238809586
Bq         1.1586324990     0.0440431345    -0.0537662885
Bq         0.9593236801    -0.0890351211     0.3850573350
Bq         1.5608344582    -4.9352999078    -0.6974870755
Bq         1.6405579858    -4.8820686056    -0.8730165250
Bq         1.5209726944    -4.9619155589    -0.6097223508
Bq         1.6804197496    -4.8554529545    -0.9607812497
Bq         1.4811109306    -4.9885312100    -0.5219576261
Bq         1.7202815134    -4.8288373034    -1.0485459744
Bq         1.4412491669    -5.0151468611    -0.4341929014
Bq         1.7601432772    -4.8022216522    -1.1363106991
Bq         1.4013874031    -5.0417625122    -0.3464281767
Bq         1.8000050409    -4.7756060011    -1.2240754238
Bq         1.6006962220    -4.9086842567    -0.7852518003
Bq         1.5498279849    -4.8389069251    -0.6732538251
Bq         1.6295515124    -4.7856756229    -0.8487832745

1
2
3
4
5
6
7
8
9
10
11
12
13
14
15
16
17
18
19
20
21
22
23
24
25
26
27
28
29
30
31
32
33
34
35
36
37
38
39
40
41
42
43
44
45
46
47
48
49
50
51
52
53
54
55
56
57
58
59
60
61
62
63
64
65
66
67
68
69
70
71
72
73
74
75
76
77
78
79
80
81
82
83
84
85
86
87
88
89
90
91
92
93
94
95
96
97
98
99
100
101
102
103
104
105
106
107
108
109
110
111
112
113
114
115
116
117
118
119
120
121
122
123
124
125
126
127
128
129
130
131
132
133
134
135
136
137
138
139
140
141
142
143
144
145
146
147
148
149
150
151
152
153
154
155
156
157
158
159
160
161
162
163
164
165
166
167
168
169
170
171
172
173
174
175
176
177
178
179
180
181
182
183
184
185
186
187
188
189
190
191
192
193
194
195
196
197
198
199
200
201
202
203
204
205
206
207
208
209
210
211
212
213
214
215
216
217
218
219
220
221
222
223
224
225
226
227
228
229
230
231
232
233
234
235
236

