%nproc=8
%mem=1000MB
# rb3lyp/6-311+g** NMR geom=connectivity

Title

0 1
C    -4.0500558   -0.5771862    0.8136712
H    -5.0263804   -1.0082727    1.0024760
C    -3.9381552    0.6617804    0.2400876
H    -4.8252424    1.2338890   -0.0111295
C    -2.6768410    1.2433246    0.0057578
C    -1.4974121    0.5051527    0.2848253
C    -1.6508332   -0.7338728    0.9404026
H    -0.7713646   -1.2730967    1.2633753
C    -2.8898548   -1.2624035    1.1994307
H    -2.9683706   -2.2124563    1.7152676
C    -2.5773185    2.5963696   -0.4192930
H    -3.4870728    3.1412239   -0.6474055
C    -1.3741895    3.2147896   -0.4364030
H    -1.2997315    4.2742019   -0.6578144
C    -0.1719488    2.4994090   -0.1734588
C    -0.2043917    1.1018437    0.0192689
C     1.0513491    3.2042560   -0.0676222
H     1.0427344    4.2819499   -0.1896997
C     2.1942091    2.5487446    0.2579577
H     3.1168527    3.0912848    0.4334727
C     2.2216473    1.1336562    0.2934990
C     1.0486931    0.3945528    0.0302412
C     3.4483363    0.4614633    0.5573939
H     4.3095794    1.0606054    0.8334846
C     3.5427346   -0.8855926    0.4749463
H     4.4731467   -1.3939704    0.7038822
C     2.4490052   -1.6474447   -0.0196319
C     1.2150704   -1.0057258   -0.3013573
C     0.2531113   -1.7434440   -1.0216591
H    -0.6541356   -1.2535051   -1.3462847
C     0.4494193   -3.0628597   -1.3413779
H    -0.3083162   -3.5944309   -1.9054060
C     1.6251726   -3.7207967   -0.9552541
H     1.7670048   -4.7687404   -1.1927019
C     2.6109872   -3.0144177   -0.3183050
H     3.5525612   -3.4902813   -0.0646367
Bq         0.2306993310    -1.4039020705    -0.1410540563
Bq         0.1536627380    -1.4465850476     0.1457272659
Bq         0.2563781953    -1.3896744115    -0.2366478304
Bq         0.1279838737    -1.4608127066     0.2413210400
Bq         0.2820570596    -1.3754467524    -0.3322416045
Bq         0.1023050093    -1.4750403656     0.3369148141
Bq         0.3077359239    -1.3612190934    -0.4278353786
Bq         0.0766261450    -1.4892680247     0.4325085882
Bq         0.3334147882    -1.3469914344    -0.5234291527
Bq         0.2050204666    -1.4181297295    -0.0454602822
Bq         0.1756505518    -1.3333746945     0.0638740314
Bq         0.2270082804    -1.3049193765    -0.1273135168
Bq         0.1499716875    -1.3476023536     0.1594678055
Bq         0.2526871447    -1.2906917174    -0.2229072909
Bq         0.1242928231    -1.3618300126     0.2550615796
Bq         0.2783660091    -1.2764640584    -0.3185010650
Bq         0.0986139588    -1.3760576716     0.3506553537
Bq         0.3040448734    -1.2622363994    -0.4140948391
Bq         0.0729350945    -1.3902853306     0.4462491278
Bq         0.3297237377    -1.2480087404    -0.5096886132
Bq         0.2013294161    -1.3191470355    -0.0317197427
Bq         0.1719595012    -1.2343920005     0.0776145710
Bq         0.2233172299    -1.2059366824    -0.1135729772
Bq         0.1462806369    -1.2486196595     0.1732083451
Bq         0.2489960942    -1.1917090234    -0.2091667513
Bq         0.1206017726    -1.2628473185     0.2688021192
Bq         0.2746749585    -1.1774813644    -0.3047605254
Bq         0.0949229083    -1.2770749776     0.3643958933
Bq         0.3003538229    -1.1632537054    -0.4003542995
Bq         0.0692440439    -1.2913026366     0.4599896673
Bq         0.3260326872    -1.1490260463    -0.4959480736
Bq         0.1976383656    -1.2201643415    -0.0179792031
Bq         0.1682684507    -1.1354093065     0.0913551105
Bq         0.2196261793    -1.1069539884    -0.0998324377
Bq         0.1425895864    -1.1496369655     0.1869488846
Bq         0.2453050437    -1.0927263294    -0.1954262118
Bq         0.1169107221    -1.1638646245     0.2825426587
Bq         0.2709839080    -1.0784986703    -0.2910199859
Bq         0.0912318577    -1.1780922835     0.3781364328
Bq         0.2966627723    -1.0642710113    -0.3866137599
Bq         0.0655529934    -1.1923199426     0.4737302069
Bq         0.3223416366    -1.0500433523    -0.4822075340
Bq         0.1939473150    -1.1211816474    -0.0042386636
Bq         0.1645774002    -1.0364266124     0.1050956501
Bq         0.2159351288    -1.0079712944    -0.0860918981
Bq         0.1388985358    -1.0506542714     0.2006894242
Bq         0.2416139931    -0.9937436353    -0.1816856722
Bq         0.1132196715    -1.0648819305     0.2962831983
Bq         0.2672928575    -0.9795159763    -0.2772794463
Bq         0.0875408072    -1.0791095895     0.3918769724
Bq         0.2929717218    -0.9652883173    -0.3728732204
Bq         0.0618619429    -1.0933372485     0.4874707465
Bq         0.3186505861    -0.9510606583    -0.4684669945
Bq         0.1902562645    -1.0221989534     0.0095018760
Bq         0.1608863496    -0.9374439184     0.1188361896
Bq         0.2122440783    -0.9089886003    -0.0723513585
Bq         0.1352074853    -0.9516715774     0.2144299637
Bq         0.2379229426    -0.8947609413    -0.1679451326
Bq         0.1095286210    -0.9658992364     0.3100237378
Bq         0.2636018069    -0.8805332823    -0.2635389067
Bq         0.0838497567    -0.9801268955     0.4056175119
Bq         0.2892806712    -0.8663056232    -0.3591326808
Bq         0.0581708923    -0.9943545545     0.5012112860
Bq         0.3149595356    -0.8520779642    -0.4547264549
Bq         0.1865652140    -0.9232162594     0.0232424156
Bq         0.1571952991    -0.8384612243     0.1325767292
Bq         0.2085530277    -0.8100059063    -0.0586108190
Bq         0.1315164348    -0.8526888834     0.2281705033
Bq         0.2342318921    -0.7957782473    -0.1542045931
Bq         0.1058375705    -0.8669165424     0.3237642774
Bq         0.2599107564    -0.7815505882    -0.2497983672
Bq         0.0801587061    -0.8811442014     0.4193580515
Bq         0.2855896207    -0.7673229292    -0.3453921413
Bq         0.0544798418    -0.8953718605     0.5149518256
Bq         0.3112684850    -0.7530952702    -0.4409859154
Bq         0.1828741634    -0.8242335653     0.0369829551
Bq         0.1535042486    -0.7394785303     0.1463172688
Bq         0.2048619772    -0.7110232123    -0.0448702794
Bq         0.1278253842    -0.7537061893     0.2419110429
Bq         0.2305408415    -0.6967955532    -0.1404640535
Bq         0.1021465199    -0.7679338484     0.3375048170
Bq         0.2562197059    -0.6825678942    -0.2360578276
Bq         0.0764676556    -0.7821615074     0.4330985910
Bq         0.2818985702    -0.6683402352    -0.3316516017
Bq         0.0507887913    -0.7963891664     0.5286923651
Bq         0.3075774345    -0.6541125761    -0.4272453758
Bq         0.1791831129    -0.7252508713     0.0507234947
Bq         0.1498131980    -0.6404958363     0.1600578083
Bq         0.2011709267    -0.6120405182    -0.0311297399
Bq         0.1241343337    -0.6547234953     0.2556515824
Bq         0.2268497910    -0.5978128592    -0.1267235140
Bq         0.0984554694    -0.6689511543     0.3512453565
Bq         0.2525286553    -0.5835852002    -0.2223172881
Bq         0.0727766051    -0.6831788134     0.4468391306
Bq         0.2782075196    -0.5693575411    -0.3179110622
Bq         0.0470977407    -0.6974064724     0.5424329047
Bq         0.3038863840    -0.5551298821    -0.4135048362
Bq         0.1754920623    -0.6262681772     0.0644640342
Bq         0.1461221475    -0.5415131422     0.1737983479
Bq         0.1974798761    -0.5130578242    -0.0173892003
Bq         0.1204432832    -0.5557408013     0.2693921220
Bq         0.2231587405    -0.4988301652    -0.1129829744
Bq         0.0947644188    -0.5699684603     0.3649858961
Bq         0.2488376048    -0.4846025061    -0.2085767485
Bq         0.0690855545    -0.5841961193     0.4605796702
Bq         0.2745164691    -0.4703748471    -0.3041705226
Bq         0.0434066902    -0.5984237784     0.5561734443
Bq         0.3001953334    -0.4561471881    -0.3997642967
Bq         0.1718010118    -0.5272854832     0.0782045738
Bq         0.1424310970    -0.4425304482     0.1875388874
Bq         0.1937888256    -0.4140751301    -0.0036486607
Bq         0.1167522326    -0.4567581072     0.2831326615
Bq         0.2194676899    -0.3998474711    -0.0992424348
Bq         0.0910733683    -0.4709857663     0.3787264356
Bq         0.2451465542    -0.3856198121    -0.1948362089
Bq         0.0653945040    -0.4852134253     0.4743202097
Bq         0.2708254186    -0.3713921531    -0.2904299830
Bq         0.0397156397    -0.4994410843     0.5699139838
Bq         0.2965042829    -0.3571644940    -0.3860237571
Bq         0.1681099613    -0.4283027892     0.0919451133
Bq         0.1387400464    -0.3435477542     0.2012794270
Bq         0.1900977751    -0.3150924361     0.0100918788
Bq         0.1130611821    -0.3577754132     0.2968732011
Bq         0.2157766394    -0.3008647771    -0.0855018953
Bq         0.0873823178    -0.3720030722     0.3924669752
Bq         0.2414555037    -0.2866371181    -0.1810956694
Bq         0.0617034535    -0.3862307313     0.4880607493
Bq         0.2671343680    -0.2724094590    -0.2766894435
Bq         0.0360245891    -0.4004583903     0.5836545234
Bq         0.2928132324    -0.2581818000    -0.3722832176
Bq         0.1644189107    -0.3293200951     0.1056856529
Bq         0.1350489959    -0.2445650601     0.2150199666
Bq         0.1864067245    -0.2161097421     0.0238324184
Bq         0.1093701316    -0.2587927192     0.3106137407
Bq         0.2120855889    -0.2018820830    -0.0717613557
Bq         0.0836912672    -0.2730203782     0.4062075147
Bq         0.2377644532    -0.1876544240    -0.1673551298
Bq         0.0580124029    -0.2872480372     0.5018012888
Bq         0.2634433175    -0.1734267650    -0.2629489039
Bq         0.0323335386    -0.3014756962     0.5973950629
Bq         0.2891221818    -0.1591991060    -0.3585426780
Bq         0.1607278602    -0.2303374011     0.1194261925
Bq         0.1313579454    -0.1455823661     0.2287605061
Bq         0.1827156740    -0.1171270480     0.0375729579
Bq         0.1056790810    -0.1598100251     0.3243542802
Bq         0.2083945383    -0.1028993890    -0.0580208162
Bq         0.0800002167    -0.1740376842     0.4199480543
Bq         0.2340734026    -0.0886717300    -0.1536145903
Bq         0.0543213524    -0.1882653432     0.5155418284
Bq         0.2597522670    -0.0744440710    -0.2492083644
Bq         0.0286424881    -0.2024930022     0.6111356025
Bq         0.2854311313    -0.0602164119    -0.3448021385
Bq         0.1570368097    -0.1313547071     0.1331667320
Bq         0.1276668948    -0.0465996721     0.2425010457
Bq         0.1790246235    -0.0181443540     0.0513134975
Bq         0.1019880305    -0.0608273311     0.3380948198
Bq         0.2047034878    -0.0039166950    -0.0442802766
Bq         0.0763091662    -0.0750549901     0.4336885939
Bq         0.2303823521     0.0103109641    -0.1398740507
Bq         0.0506303018    -0.0892826491     0.5292823680
Bq         0.2560612164     0.0245386231    -0.2354678248
Bq         0.0249514375    -0.1035103082     0.6248761421
Bq         0.2817400808     0.0387662821    -0.3310615989
Bq         0.1533457591    -0.0323720130     0.1469072716
Bq         0.1239758443     0.0523830220     0.2562415852
Bq         0.1753335729     0.0808383400     0.0650540370
Bq         0.0982969800     0.0381553629     0.3518353593
Bq         0.2010124372     0.0950659991    -0.0305397370
Bq         0.0726181156     0.0239277039     0.4474291334
Bq         0.2266913016     0.1092936581    -0.1261335111
Bq         0.0469392513     0.0097000449     0.5430229075
Bq         0.2523701659     0.1235213171    -0.2217272852
Bq         0.0212603870    -0.0045276141     0.6386166816
Bq         0.2780490302     0.1377489761    -0.3173210593
Bq         0.1496547086     0.0666106810     0.1606478111
Bq         0.1202847937     0.1513657160     0.2699821248
Bq         0.1716425224     0.1798210341     0.0787945766
Bq         0.0946059294     0.1371380570     0.3655758989
Bq         0.1973213867     0.1940486931    -0.0167991975
Bq         0.0689270651     0.1229103980     0.4611696730
Bq         0.2230002510     0.2082763521    -0.1123929716
Bq         0.0432482008     0.1086827389     0.5567634471
Bq         0.2486791154     0.2225040112    -0.2079867457
Bq         0.0175693365     0.0944550799     0.6523572212
Bq         0.2743579797     0.2367316702    -0.3035805198
Bq         0.1459636581     0.1655933750     0.1743883507
Bq         0.1165937432     0.2503484100     0.2837226644
Bq         0.1679514719     0.2788037281     0.0925351162
Bq         0.0909148789     0.2361207510     0.3793164384
Bq         0.1936303362     0.2930313871    -0.0030586579
Bq         0.0652360146     0.2218930920     0.4749102125
Bq         0.2193092005     0.3072590462    -0.0986524320
Bq         0.0395571502     0.2076654330     0.5705039866
Bq         0.2449880648     0.3214867052    -0.1942462061
Bq         0.0138782859     0.1934377739     0.6660977607
Bq         0.2706669291     0.3357143642    -0.2898399802
Bq         0.1422726075     0.2645760691     0.1881288903
Bq         0.1129026927     0.3493311041     0.2974632039
Bq         0.1642604213     0.3777864221     0.1062756557
Bq         0.0872238284     0.3351034451     0.3930569780

1
2
3
4
5
6
7
8
9
10
11
12
13
14
15
16
17
18
19
20
21
22
23
24
25
26
27
28
29
30
31
32
33
34
35
36
37
38
39
40
41
42
43
44
45
46
47
48
49
50
51
52
53
54
55
56
57
58
59
60
61
62
63
64
65
66
67
68
69
70
71
72
73
74
75
76
77
78
79
80
81
82
83
84
85
86
87
88
89
90
91
92
93
94
95
96
97
98
99
100
101
102
103
104
105
106
107
108
109
110
111
112
113
114
115
116
117
118
119
120
121
122
123
124
125
126
127
128
129
130
131
132
133
134
135
136
137
138
139
140
141
142
143
144
145
146
147
148
149
150
151
152
153
154
155
156
157
158
159
160
161
162
163
164
165
166
167
168
169
170
171
172
173
174
175
176
177
178
179
180
181
182
183
184
185
186
187
188
189
190
191
192
193
194
195
196
197
198
199
200
201
202
203
204
205
206
207
208
209
210
211
212
213
214
215
216
217
218
219
220
221
222
223
224
225
226
227
228
229
230
231
232
233
234
235
236

