%nproc=8
%mem=1000MB
# rb3lyp/6-311+g** NMR geom=connectivity

Title

0 1
C    -4.0500558   -0.5771862    0.8136712
H    -5.0263804   -1.0082727    1.0024760
C    -3.9381552    0.6617804    0.2400876
H    -4.8252424    1.2338890   -0.0111295
C    -2.6768410    1.2433246    0.0057578
C    -1.4974121    0.5051527    0.2848253
C    -1.6508332   -0.7338728    0.9404026
H    -0.7713646   -1.2730967    1.2633753
C    -2.8898548   -1.2624035    1.1994307
H    -2.9683706   -2.2124563    1.7152676
C    -2.5773185    2.5963696   -0.4192930
H    -3.4870728    3.1412239   -0.6474055
C    -1.3741895    3.2147896   -0.4364030
H    -1.2997315    4.2742019   -0.6578144
C    -0.1719488    2.4994090   -0.1734588
C    -0.2043917    1.1018437    0.0192689
C     1.0513491    3.2042560   -0.0676222
H     1.0427344    4.2819499   -0.1896997
C     2.1942091    2.5487446    0.2579577
H     3.1168527    3.0912848    0.4334727
C     2.2216473    1.1336562    0.2934990
C     1.0486931    0.3945528    0.0302412
C     3.4483363    0.4614633    0.5573939
H     4.3095794    1.0606054    0.8334846
C     3.5427346   -0.8855926    0.4749463
H     4.4731467   -1.3939704    0.7038822
C     2.4490052   -1.6474447   -0.0196319
C     1.2150704   -1.0057258   -0.3013573
C     0.2531113   -1.7434440   -1.0216591
H    -0.6541356   -1.2535051   -1.3462847
C     0.4494193   -3.0628597   -1.3413779
H    -0.3083162   -3.5944309   -1.9054060
C     1.6251726   -3.7207967   -0.9552541
H     1.7670048   -4.7687404   -1.1927019
C     2.6109872   -3.0144177   -0.3183050
H     3.5525612   -3.4902813   -0.0646367
Bq         1.5964466293    -2.2520633397    -0.2142440714
Bq         1.3653368504    -2.3801122710     0.6460998955
Bq         1.6221254937    -2.2378356807    -0.3098378455
Bq         1.4937311721    -2.3089739759     0.1681310250
Bq         1.4643612572    -2.2242189408     0.2774653386
Bq         1.5157189858    -2.1957636228     0.0862777904
Bq         1.4386823929    -2.2384465999     0.3730591127
Bq         1.5413978502    -2.1815359638    -0.0093159836
Bq         1.4130035286    -2.2526742589     0.4686528868
Bq         1.5670767145    -2.1673083047    -0.1049097577
Bq         1.3873246642    -2.2669019179     0.5642466609
Bq         1.5927555788    -2.1530806457    -0.2005035318
Bq         1.3616457999    -2.2811295770     0.6598404350
Bq         1.6184344431    -2.1388529867    -0.2960973059
Bq         1.4900401215    -2.2099912818     0.1818715645
Bq         1.4606702067    -2.1252362468     0.2912058782
Bq         1.5120279353    -2.0967809288     0.1000183300
Bq         1.4349913423    -2.1394639058     0.3867996523
Bq         1.5377067996    -2.0825532697     0.0044245559
Bq         1.4093124780    -2.1536915649     0.4823934264
Bq         1.5633856640    -2.0683256107    -0.0911692182
Bq         1.3836336137    -2.1679192239     0.5779872005
Bq         1.5890645283    -2.0540979517    -0.1867629923
Bq         1.3579547494    -2.1821468829     0.6735809746
Bq         1.6147433926    -2.0398702926    -0.2823567664
Bq         1.4863490710    -2.1110085878     0.1956121041
Bq         1.4569791561    -2.0262535528     0.3049464178
Bq         1.5083368848    -1.9977982347     0.1137588696
Bq         1.4313002918    -2.0404812118     0.4005401919
Bq         1.5340157491    -1.9835705757     0.0181650955
Bq         1.4056214275    -2.0547088708     0.4961339659
Bq         1.5596946134    -1.9693429167    -0.0774286786
Bq         1.3799425632    -2.0689365299     0.5917277400
Bq         1.5853734777    -1.9551152576    -0.1730224527
Bq         1.3542636988    -2.0831641889     0.6873215141
Bq         1.6110523421    -1.9408875986    -0.2686162268
Bq         1.4826580204    -2.0120258937     0.2093526437
Bq         1.4532881056    -1.9272708587     0.3186869573
Bq         1.5046458342    -1.8988155407     0.1274994091
Bq         1.4276092413    -1.9414985178     0.4142807314
Bq         1.5303246986    -1.8845878817     0.0319056350
Bq         1.4019303769    -1.9557261768     0.5098745055
Bq         1.5560035629    -1.8703602226    -0.0636881391
Bq         1.3762515126    -1.9699538358     0.6054682796
Bq         1.5816824272    -1.8561325636    -0.1592819132
Bq         1.3505726483    -1.9841814949     0.7010620537
Bq         1.6073612915    -1.8419049046    -0.2548756873
Bq         1.4789669699    -1.9130431997     0.2230931832
Bq         1.4495970551    -1.8282881647     0.3324274969
Bq         1.5009547837    -1.7998328466     0.1412399487
Bq         1.4239181907    -1.8425158237     0.4280212710
Bq         1.5266336480    -1.7856051876     0.0456461746
Bq         1.3982393264    -1.8567434828     0.5236150451
Bq         1.5523125123    -1.7713775286    -0.0499475995
Bq         1.3725604621    -1.8709711418     0.6192088192
Bq         1.5779913767    -1.7571498696    -0.1455413736
Bq         1.3468815978    -1.8851988008     0.7148025933
Bq         1.6036702410    -1.7429222105    -0.2411351477
Bq         1.4752759194    -1.8140605057     0.2368337228
Bq         1.4459060045    -1.7293054707     0.3461680364
Bq         1.4972637332    -1.7008501526     0.1549804882
Bq         1.4202271402    -1.7435331297     0.4417618105
Bq         1.5229425975    -1.6866224936     0.0593867141
Bq         1.3945482759    -1.7577607887     0.5373555846
Bq         1.5486214618    -1.6723948346    -0.0362070599
Bq         1.3688694116    -1.7719884478     0.6329493587
Bq         1.5743003261    -1.6581671755    -0.1318008340
Bq         1.3431905472    -1.7862161068     0.7285431328
Bq         1.5999791905    -1.6439395165    -0.2273946081
Bq         1.4715848688    -1.7150778116     0.2505742623
Bq         1.4422149540    -1.6303227766     0.3599085760
Bq         1.4935726826    -1.6018674586     0.1687210278
Bq         1.4165360897    -1.6445504357     0.4555023501
Bq         1.5192515470    -1.5876397995     0.0731272537
Bq         1.3908572253    -1.6587780947     0.5510961242
Bq         1.5449304113    -1.5734121405    -0.0224665204
Bq         1.3651783610    -1.6730057537     0.6466898983
Bq         1.5706092756    -1.5591844815    -0.1180602945
Bq         1.3394994967    -1.6872334127     0.7422836724
Bq         1.5962881399    -1.5449568225    -0.2136540686
Bq         1.4678938183    -1.6160951176     0.2643148019
Bq         1.4385239035    -1.5313400826     0.3736491156
Bq         1.4898816321    -1.5028847645     0.1824615674
Bq         1.4128450391    -1.5455677416     0.4692428896
Bq         1.5155604964    -1.4886571055     0.0868677933
Bq         1.3871661748    -1.5597954007     0.5648366637
Bq         1.5412393607    -1.4744294465    -0.0087259808
Bq         1.3614873105    -1.5740230597     0.6604304378
Bq         1.5669182251    -1.4602017875    -0.1043197549
Bq         1.3358084462    -1.5882507187     0.7560242119
Bq         1.5925970894    -1.4459741284    -0.1999135290
Bq         1.4642027678    -1.5171124236     0.2780553415
Bq         1.4348328529    -1.4323573886     0.3873896551
Bq         1.4861905816    -1.4039020705     0.1962021069
Bq         1.4091539886    -1.4465850476     0.4829834292
Bq         1.5118694459    -1.3896744115     0.1006083328
Bq         1.3834751243    -1.4608127066     0.5785772033
Bq         1.5375483102    -1.3754467524     0.0050145587
Bq         1.3577962599    -1.4750403656     0.6741709774
Bq         1.5632271745    -1.3612190934    -0.0905792154
Bq         1.3321173956    -1.4892680247     0.7697647515
Bq         1.5889060389    -1.3469914344    -0.1861729895
Bq         1.4605117172    -1.4181297295     0.2917958810
Bq         1.4311418024    -1.3333746945     0.4011301947
Bq         1.4824995310    -1.3049193765     0.2099426465
Bq         1.4054629381    -1.3476023536     0.4967239688
Bq         1.5081783953    -1.2906917174     0.1143488724
Bq         1.3797840737    -1.3618300126     0.5923177429
Bq         1.5338572597    -1.2764640584     0.0187550983
Bq         1.3541052094    -1.3760576716     0.6879115170
Bq         1.5595361240    -1.2622363994    -0.0768386758
Bq         1.3284263451    -1.3902853306     0.7835052910
Bq         1.5852149883    -1.2480087404    -0.1724324499
Bq         1.4568206667    -1.3191470355     0.3055364206
Bq         1.4274507518    -1.2343920005     0.4148707342
Bq         1.4788084805    -1.2059366824     0.2236831860
Bq         1.4017718875    -1.2486196595     0.5104645083
Bq         1.5044873448    -1.1917090234     0.1280894119
Bq         1.3760930232    -1.2628473185     0.6060582824
Bq         1.5301662091    -1.1774813644     0.0324956378
Bq         1.3504141589    -1.2770749776     0.7016520565
Bq         1.5558450735    -1.1632537054    -0.0630981362
Bq         1.3247352946    -1.2913026366     0.7972458306
Bq         1.5815239378    -1.1490260463    -0.1586919103
Bq         1.4531296162    -1.2201643415     0.3192769601
Bq         1.4237597013    -1.1354093065     0.4286112738
Bq         1.4751174300    -1.1069539884     0.2374237256
Bq         1.3980808370    -1.1496369655     0.5242050479
Bq         1.5007962943    -1.0927263294     0.1418299515
Bq         1.3724019727    -1.1638646245     0.6197988220
Bq         1.5264751586    -1.0784986703     0.0462361774
Bq         1.3467231083    -1.1780922835     0.7153925961
Bq         1.5521540229    -1.0642710113    -0.0493575967
Bq         1.3210442440    -1.1923199426     0.8109863702
Bq         1.5778328872    -1.0500433523    -0.1449513708
Bq         1.4494385656    -1.1211816474     0.3330174997
Bq         1.4200686508    -1.0364266124     0.4423518133
Bq         1.4714263794    -1.0079712944     0.2511642652
Bq         1.3943897865    -1.0506542714     0.5379455874
Bq         1.4971052437    -0.9937436353     0.1555704911
Bq         1.3687109221    -1.0648819305     0.6335393615
Bq         1.5227841081    -0.9795159763     0.0599767170
Bq         1.3430320578    -1.0791095895     0.7291331356
Bq         1.5484629724    -0.9652883173    -0.0356170571
Bq         1.3173531935    -1.0933372485     0.8247269097
Bq         1.5741418367    -0.9510606583    -0.1312108312
Bq         1.4457475151    -1.0221989534     0.3467580392
Bq         1.4163776002    -0.9374439184     0.4560923529
Bq         1.4677353289    -0.9089886003     0.2649048047
Bq         1.3906987359    -0.9516715774     0.5516861270
Bq         1.4934141932    -0.8947609413     0.1693110306
Bq         1.3650198716    -0.9658992364     0.6472799011
Bq         1.5190930575    -0.8805332823     0.0737172565
Bq         1.3393410073    -0.9801268955     0.7428736752
Bq         1.5447719219    -0.8663056232    -0.0218765176
Bq         1.3136621429    -0.9943545545     0.8384674493
Bq         1.5704507862    -0.8520779642    -0.1174702917
Bq         1.4420564646    -0.9232162594     0.3604985788
Bq         1.4126865497    -0.8384612243     0.4698328925
Bq         1.4640442783    -0.8100059063     0.2786453443
Bq         1.3870076854    -0.8526888834     0.5654266666
Bq         1.4897231427    -0.7957782473     0.1830515702
Bq         1.3613288211    -0.8669165424     0.6610204407
Bq         1.5154020070    -0.7815505882     0.0874577961
Bq         1.3356499567    -0.8811442014     0.7566142147
Bq         1.5410808713    -0.7673229292    -0.0081359780
Bq         1.3099710924    -0.8953718605     0.8522079888
Bq         1.5667597356    -0.7530952702    -0.1037297521
Bq         1.4383654140    -0.8242335653     0.3742391184
Bq         1.4089954992    -0.7394785303     0.4835734320
Bq         1.4603532278    -0.7110232123     0.2923858838
Bq         1.3833166348    -0.7537061893     0.5791672061
Bq         1.4860320921    -0.6967955532     0.1967921097
Bq         1.3576377705    -0.7679338484     0.6747609802
Bq         1.5117109565    -0.6825678942     0.1011983356
Bq         1.3319589062    -0.7821615074     0.7703547543
Bq         1.5373898208    -0.6683402352     0.0056045615
Bq         1.3062800419    -0.7963891664     0.8659485284
Bq         1.5630686851    -0.6541125761    -0.0899892125
Bq         1.4346743635    -0.7252508713     0.3879796579
Bq         1.4053044486    -0.6404958363     0.4973139716
Bq         1.4566621773    -0.6120405182     0.3061264234
Bq         1.3796255843    -0.6547234953     0.5929077457
Bq         1.4823410416    -0.5978128592     0.2105326493
Bq         1.3539467200    -0.6689511543     0.6885015198
Bq         1.5080199059    -0.5835852002     0.1149388752
Bq         1.3282678557    -0.6831788134     0.7840952939
Bq         1.5336987702    -0.5693575411     0.0193451011
Bq         1.3025889913    -0.6974064724     0.8796890680
Bq         1.5593776346    -0.5551298821    -0.0762486730
Bq         1.4309833130    -0.6262681772     0.4017201975
Bq         1.4016133981    -0.5415131422     0.5110545111
Bq         1.4529711267    -0.5130578242     0.3198669629
Bq         1.3759345338    -0.5557408013     0.6066482852
Bq         1.4786499911    -0.4988301652     0.2242731889
Bq         1.3502556695    -0.5699684603     0.7022420593
Bq         1.5043288554    -0.4846025061     0.1286794148
Bq         1.3245768051    -0.5841961193     0.7978358334
Bq         1.5300077197    -0.4703748471     0.0330856407
Bq         1.2988979408    -0.5984237784     0.8934296075

1
2
3
4
5
6
7
8
9
10
11
12
13
14
15
16
17
18
19
20
21
22
23
24
25
26
27
28
29
30
31
32
33
34
35
36
37
38
39
40
41
42
43
44
45
46
47
48
49
50
51
52
53
54
55
56
57
58
59
60
61
62
63
64
65
66
67
68
69
70
71
72
73
74
75
76
77
78
79
80
81
82
83
84
85
86
87
88
89
90
91
92
93
94
95
96
97
98
99
100
101
102
103
104
105
106
107
108
109
110
111
112
113
114
115
116
117
118
119
120
121
122
123
124
125
126
127
128
129
130
131
132
133
134
135
136
137
138
139
140
141
142
143
144
145
146
147
148
149
150
151
152
153
154
155
156
157
158
159
160
161
162
163
164
165
166
167
168
169
170
171
172
173
174
175
176
177
178
179
180
181
182
183
184
185
186
187
188
189
190
191
192
193
194
195
196
197
198
199
200
201
202
203
204
205
206
207
208
209
210
211
212
213
214
215
216
217
218
219
220
221
222
223
224
225
226
227
228
229
230
231
232
233
234
235
236

