%nproc=8
%mem=1000MB
# rb3lyp/6-311+g** NMR geom=connectivity

Title

0 1
C    -4.0500558   -0.5771862    0.8136712
H    -5.0263804   -1.0082727    1.0024760
C    -3.9381552    0.6617804    0.2400876
H    -4.8252424    1.2338890   -0.0111295
C    -2.6768410    1.2433246    0.0057578
C    -1.4974121    0.5051527    0.2848253
C    -1.6508332   -0.7338728    0.9404026
H    -0.7713646   -1.2730967    1.2633753
C    -2.8898548   -1.2624035    1.1994307
H    -2.9683706   -2.2124563    1.7152676
C    -2.5773185    2.5963696   -0.4192930
H    -3.4870728    3.1412239   -0.6474055
C    -1.3741895    3.2147896   -0.4364030
H    -1.2997315    4.2742019   -0.6578144
C    -0.1719488    2.4994090   -0.1734588
C    -0.2043917    1.1018437    0.0192689
C     1.0513491    3.2042560   -0.0676222
H     1.0427344    4.2819499   -0.1896997
C     2.1942091    2.5487446    0.2579577
H     3.1168527    3.0912848    0.4334727
C     2.2216473    1.1336562    0.2934990
C     1.0486931    0.3945528    0.0302412
C     3.4483363    0.4614633    0.5573939
H     4.3095794    1.0606054    0.8334846
C     3.5427346   -0.8855926    0.4749463
H     4.4731467   -1.3939704    0.7038822
C     2.4490052   -1.6474447   -0.0196319
C     1.2150704   -1.0057258   -0.3013573
C     0.2531113   -1.7434440   -1.0216591
H    -0.6541356   -1.2535051   -1.3462847
C     0.4494193   -3.0628597   -1.3413779
H    -0.3083162   -3.5944309   -1.9054060
C     1.6251726   -3.7207967   -0.9552541
H     1.7670048   -4.7687404   -1.1927019
C     2.6109872   -3.0144177   -0.3183050
H     3.5525612   -3.4902813   -0.0646367
Bq        -1.7875166428    -0.8003525344     1.5131865819
Bq        -1.7876997061    -0.6668184247     1.5597548977
Bq        -1.7869917149    -0.7537838587     1.3796535039
Bq        -1.7880537017    -0.6233357077     1.6498055946
Bq        -1.7866377194    -0.7972665757     1.2896028071
Bq        -1.7884076972    -0.5798529907     1.7398562915
Bq        -1.7862837238    -0.8407492927     1.1995521102
Bq        -1.7887616928    -0.5363702737     1.8299069884
Bq        -1.7859297282    -0.8842320097     1.1095014133
Bq        -1.7891156884    -0.4928875567     1.9199576852
Bq        -1.7855757326    -0.9277147267     1.0194507164
Bq        -1.7873457105    -0.7103011417     1.4697042008
Bq        -1.7875287738    -0.5767670320     1.5162725167
Bq        -1.7868207827    -0.6637324660     1.3361711229
Bq        -1.7878827694    -0.5332843150     1.6063232136
Bq        -1.7864667871    -0.7072151830     1.2461204260
Bq        -1.7882367650    -0.4898015980     1.6963739104
Bq        -1.7861127915    -0.7506979000     1.1560697291
Bq        -1.7885907605    -0.4463188810     1.7864246073
Bq        -1.7857587959    -0.7941806170     1.0660190323
Bq        -1.7889447561    -0.4028361640     1.8764753042
Bq        -1.7854048004    -0.8376633340     0.9759683354
Bq        -1.7871747782    -0.6202497490     1.4262218198
Bq        -1.7873578415    -0.4867156393     1.4727901356
Bq        -1.7866498504    -0.5736810733     1.2926887419
Bq        -1.7877118371    -0.4432329223     1.5628408325
Bq        -1.7862958548    -0.6171637904     1.2026380450
Bq        -1.7880658327    -0.3997502053     1.6528915294
Bq        -1.7859418592    -0.6606465074     1.1125873481
Bq        -1.7884198283    -0.3562674883     1.7429422263
Bq        -1.7855878637    -0.7041292244     1.0225366512
Bq        -1.7887738238    -0.3127847713     1.8329929232
Bq        -1.7852338681    -0.7476119414     0.9324859543
Bq        -1.7870038460    -0.5301983563     1.3827394388
Bq        -1.7871869093    -0.3966642467     1.4293077546
Bq        -1.7864789181    -0.4836296807     1.2492063608
Bq        -1.7875409048    -0.3531815297     1.5193584515
Bq        -1.7861249225    -0.5271123977     1.1591556640
Bq        -1.7878949004    -0.3096988127     1.6094091484
Bq        -1.7857709270    -0.5705951147     1.0691049671
Bq        -1.7882488960    -0.2662160957     1.6994598453
Bq        -1.7854169314    -0.6140778317     0.9790542702
Bq        -1.7886028916    -0.2227333786     1.7895105421
Bq        -1.7850629358    -0.6575605487     0.8890035733
Bq        -1.7868329137    -0.4401469637     1.3392570577
Bq        -1.7870159770    -0.3066128540     1.3858253736
Bq        -1.7863079858    -0.3935782880     1.2057239798
Bq        -1.7873699726    -0.2631301370     1.4758760705
Bq        -1.7859539903    -0.4370610050     1.1156732829
Bq        -1.7877239681    -0.2196474200     1.5659267673
Bq        -1.7855999947    -0.4805437220     1.0256225860
Bq        -1.7880779637    -0.1761647030     1.6559774642
Bq        -1.7852459991    -0.5240264390     0.9355718892
Bq        -1.7884319593    -0.1326819860     1.7460281611
Bq        -1.7848920035    -0.5675091560     0.8455211923
Bq        -1.7866619814    -0.3500955710     1.2957746767
Bq        -1.7868450447    -0.2165614613     1.3423429925
Bq        -1.7861370536    -0.3035268953     1.1622415988
Bq        -1.7871990403    -0.1730787443     1.4323936894
Bq        -1.7857830580    -0.3470096123     1.0721909019
Bq        -1.7875530359    -0.1295960273     1.5224443863
Bq        -1.7854290624    -0.3904923293     0.9821402050
Bq        -1.7879070314    -0.0861133103     1.6124950832
Bq        -1.7850750668    -0.4339750463     0.8920895081
Bq        -1.7882610270    -0.0426305933     1.7025457801
Bq        -1.7847210713    -0.4774577634     0.8020388113
Bq        -1.7864910491    -0.2600441783     1.2522922957
Bq        -1.7866741124    -0.1265100687     1.2988606115
Bq        -1.7859661213    -0.2134755027     1.1187592177
Bq        -1.7870281080    -0.0830273517     1.3889113084
Bq        -1.7856121257    -0.2569582197     1.0287085209
Bq        -1.7873821036    -0.0395446346     1.4789620053
Bq        -1.7852581301    -0.3004409367     0.9386578240
Bq        -1.7877360992     0.0039380824     1.5690127022
Bq        -1.7849041346    -0.3439236537     0.8486071271
Bq        -1.7880900947     0.0474207994     1.6590633990
Bq        -1.7845501390    -0.3874063707     0.7585564302
Bq        -1.7863201169    -0.1699927857     1.2088099146
Bq        -1.7865031802    -0.0364586760     1.2553782305
Bq        -1.7857951890    -0.1234241100     1.0752768367
Bq        -1.7868571757     0.0070240410     1.3454289274
Bq        -1.7854411934    -0.1669068270     0.9852261398
Bq        -1.7872111713     0.0505067580     1.4354796242
Bq        -1.7850871979    -0.2103895440     0.8951754430
Bq        -1.7875651669     0.0939894750     1.5255303211
Bq        -1.7847332023    -0.2538722610     0.8051247461
Bq        -1.7879191625     0.1374721920     1.6155810180
Bq        -1.7843792067    -0.2973549780     0.7150740492
Bq        -1.7861491846    -0.0799413930     1.1653275336
Bq        -1.7863322479     0.0535927167     1.2118958494
Bq        -1.7856242567    -0.0333727173     1.0317944557
Bq        -1.7866862435     0.0970754337     1.3019465463
Bq        -1.7852702612    -0.0768554343     0.9417437588
Bq        -1.7870402390     0.1405581507     1.3919972432
Bq        -1.7849162656    -0.1203381513     0.8516930619
Bq        -1.7873942346     0.1840408677     1.4820479401
Bq        -1.7845622700    -0.1638208683     0.7616423650
Bq        -1.7877482302     0.2275235847     1.5720986370
Bq        -1.7842082744    -0.2073035853     0.6715916682
Bq        -1.7859782523     0.0101099997     1.1218451526
Bq        -1.7861613156     0.1436441094     1.1684134684
Bq        -1.7854533245     0.0566786753     0.9883120747
Bq        -1.7865153112     0.1871268264     1.2584641653
Bq        -1.7850993289     0.0131959583     0.8982613778
Bq        -1.7868693068     0.2306095434     1.3485148622
Bq        -1.7847453333    -0.0302867587     0.8082106809
Bq        -1.7872233023     0.2740922604     1.4385655591
Bq        -1.7843913377    -0.0737694757     0.7181599840
Bq        -1.7875772979     0.3175749774     1.5286162559
Bq        -1.7840373422    -0.1172521927     0.6281092871
Bq        -1.7858073200     0.1001613924     1.0783627715
Bq        -1.7859903833     0.2336955020     1.1249310874
Bq        -1.7852823922     0.1467300680     0.9448296936
Bq        -1.7863443789     0.2771782190     1.2149817843
Bq        -1.7849283966     0.1032473510     0.8547789967
Bq        -1.7866983745     0.3206609360     1.3050324811
Bq        -1.7845744010     0.0597646340     0.7647282999
Bq        -1.7870523701     0.3641436530     1.3950831780
Bq        -1.7842204055     0.0162819170     0.6746776030
Bq        -1.7874063656     0.4076263700     1.4851338749
Bq        -1.7838664099    -0.0272008000     0.5846269061
Bq        -1.7856363878     0.1902127850     1.0348803905
Bq        -1.7858194511     0.3237468947     1.0814487064
Bq        -1.7851114599     0.2367814607     0.9013473126
Bq        -1.7861734466     0.3672296117     1.1714994032
Bq        -1.7847574643     0.1932987437     0.8112966157
Bq        -1.7865274422     0.4107123287     1.2615501001
Bq        -1.7844034688     0.1498160267     0.7212459188
Bq        -1.7868814378     0.4541950457     1.3516007970
Bq        -1.7840494732     0.1063333097     0.6311952219
Bq        -1.7872354334     0.4976777627     1.4416514939
Bq        -1.7836954776     0.0628505927     0.5411445251
Bq        -1.7854654555     0.2802641777     0.9913980095
Bq        -1.7856485188     0.4137982874     1.0379663253
Bq        -1.7849405276     0.3268328534     0.8578649316
Bq        -1.7860025144     0.4572810044     1.1280170222
Bq        -1.7845865321     0.2833501364     0.7678142347
Bq        -1.7863565099     0.5007637214     1.2180677191
Bq        -1.7842325365     0.2398674194     0.6777635378
Bq        -1.7867105055     0.5442464384     1.3081184160
Bq        -1.7838785409     0.1963847023     0.5877128409
Bq        -1.7870645011     0.5877291554     1.3981691128
Bq        -1.7835245453     0.1529019853     0.4976621440
Bq        -1.7852945232     0.3703155704     0.9479156284
Bq        -1.7854775865     0.5038496800     0.9944839443
Bq        -1.7847695954     0.4168842460     0.8143825505
Bq        -1.7858315821     0.5473323970     1.0845346412
Bq        -1.7844155998     0.3734015290     0.7243318536
Bq        -1.7861855777     0.5908151140     1.1745853381
Bq        -1.7840616042     0.3299188120     0.6342811568
Bq        -1.7865395732     0.6342978311     1.2646360349
Bq        -1.7837076086     0.2864360950     0.5442304599
Bq        -1.7868935688     0.6777805481     1.3546867318
Bq        -1.7833536131     0.2429533780     0.4541797630
Bq        -1.7851235909     0.4603669630     0.9044332474
Bq        -1.7853066542     0.5939010727     0.9510015633
Bq        -1.7845986631     0.5069356387     0.7709001695
Bq        -1.7856606498     0.6373837897     1.0410522601
Bq        -1.7842446675     0.4634529217     0.6808494726
Bq        -1.7860146454     0.6808665067     1.1311029570
Bq        -1.7838906719     0.4199702047     0.5907987757
Bq        -1.7863686410     0.7243492237     1.2211536539
Bq        -1.7835366764     0.3764874877     0.5007480788
Bq        -1.7867226365     0.7678319407     1.3112043508
Bq        -1.7831826808     0.3330047707     0.4106973820
Bq        -1.7849526587     0.5504183557     0.8609508664
Bq        -1.7851357220     0.6839524654     0.9075191822
Bq        -1.7844277308     0.5969870314     0.7274177885
Bq        -1.7854897175     0.7274351824     0.9975698791
Bq        -1.7840737352     0.5535043144     0.6373670916
Bq        -1.7858437131     0.7709178994     1.0876205760
Bq        -1.7837197397     0.5100215974     0.5473163947
Bq        -1.7861977087     0.8144006164     1.1776712729
Bq        -1.7833657441     0.4665388804     0.4572656978
Bq        -1.7865517043     0.8578833334     1.2677219698
Bq        -1.7830117485     0.4230561634     0.3672150009
Bq        -1.7847817264     0.6404697484     0.8174684853
Bq        -1.7849647897     0.7740038581     0.8640368012
Bq        -1.7842567985     0.6870384240     0.6839354074
Bq        -1.7853187853     0.8174865751     0.9540874981
Bq        -1.7839028030     0.6435557070     0.5938847105
Bq        -1.7856727808     0.8609692921     1.0441381950
Bq        -1.7835488074     0.6000729900     0.5038340137
Bq        -1.7860267764     0.9044520091     1.1341888918
Bq        -1.7831948118     0.5565902730     0.4137833168
Bq        -1.7863807720     0.9479347261     1.2242395887
Bq        -1.7828408163     0.5131075560     0.3237326199
Bq        -1.7846107941     0.7305211410     0.7739861043
Bq        -1.7847938574     0.8640552507     0.8205544202
Bq        -1.7840858663     0.7770898167     0.6404530264
Bq        -1.7851478530     0.9075379677     0.9106051170
Bq        -1.7837318707     0.7336070997     0.5504023295
Bq        -1.7855018486     0.9510206847     1.0006558139
Bq        -1.7833778751     0.6901243827     0.4603516326
Bq        -1.7858558441     0.9945034017     1.0907065108
Bq        -1.7830238796     0.6466416657     0.3703009357
Bq        -1.7862098397     1.0379861187     1.1807572077
Bq        -1.7826698840     0.6031589487     0.2802502389
Bq        -1.7844398618     0.8205725337     0.7305037233
Bq        -1.7846229251     0.9541066434     0.7770720391

1
2
3
4
5
6
7
8
9
10
11
12
13
14
15
16
17
18
19
20
21
22
23
24
25
26
27
28
29
30
31
32
33
34
35
36
37
38
39
40
41
42
43
44
45
46
47
48
49
50
51
52
53
54
55
56
57
58
59
60
61
62
63
64
65
66
67
68
69
70
71
72
73
74
75
76
77
78
79
80
81
82
83
84
85
86
87
88
89
90
91
92
93
94
95
96
97
98
99
100
101
102
103
104
105
106
107
108
109
110
111
112
113
114
115
116
117
118
119
120
121
122
123
124
125
126
127
128
129
130
131
132
133
134
135
136
137
138
139
140
141
142
143
144
145
146
147
148
149
150
151
152
153
154
155
156
157
158
159
160
161
162
163
164
165
166
167
168
169
170
171
172
173
174
175
176
177
178
179
180
181
182
183
184
185
186
187
188
189
190
191
192
193
194
195
196
197
198
199
200
201
202
203
204
205
206
207
208
209
210
211
212
213
214
215
216
217
218
219
220
221
222
223
224
225
226
227
228
229
230
231
232
233
234
235
236

