%nproc=8
%mem=1000MB
# rb3lyp/6-311+g** NMR geom=connectivity

Title

0 1
C    -4.0500558   -0.5771862    0.8136712
H    -5.0263804   -1.0082727    1.0024760
C    -3.9381552    0.6617804    0.2400876
H    -4.8252424    1.2338890   -0.0111295
C    -2.6768410    1.2433246    0.0057578
C    -1.4974121    0.5051527    0.2848253
C    -1.6508332   -0.7338728    0.9404026
H    -0.7713646   -1.2730967    1.2633753
C    -2.8898548   -1.2624035    1.1994307
H    -2.9683706   -2.2124563    1.7152676
C    -2.5773185    2.5963696   -0.4192930
H    -3.4870728    3.1412239   -0.6474055
C    -1.3741895    3.2147896   -0.4364030
H    -1.2997315    4.2742019   -0.6578144
C    -0.1719488    2.4994090   -0.1734588
C    -0.2043917    1.1018437    0.0192689
C     1.0513491    3.2042560   -0.0676222
H     1.0427344    4.2819499   -0.1896997
C     2.1942091    2.5487446    0.2579577
H     3.1168527    3.0912848    0.4334727
C     2.2216473    1.1336562    0.2934990
C     1.0486931    0.3945528    0.0302412
C     3.4483363    0.4614633    0.5573939
H     4.3095794    1.0606054    0.8334846
C     3.5427346   -0.8855926    0.4749463
H     4.4731467   -1.3939704    0.7038822
C     2.4490052   -1.6474447   -0.0196319
C     1.2150704   -1.0057258   -0.3013573
C     0.2531113   -1.7434440   -1.0216591
H    -0.6541356   -1.2535051   -1.3462847
C     0.4494193   -3.0628597   -1.3413779
H    -0.3083162   -3.5944309   -1.9054060
C     1.6251726   -3.7207967   -0.9552541
H     1.7670048   -4.7687404   -1.1927019
C     2.6109872   -3.0144177   -0.3183050
H     3.5525612   -3.4902813   -0.0646367
Bq         2.4966520968    -4.3137803310     0.1439157786
Bq         2.7358226795    -4.1540864244    -0.3826725697
Bq         2.4567903330    -4.3403959821     0.2316805033
Bq         2.7756844433    -4.1274707733    -0.4704372944
Bq         2.4169285692    -4.3670116332     0.3194452281
Bq         2.8155462071    -4.1008551222    -0.5582020191
Bq         2.6162373882    -4.2339333777    -0.1193783955
Bq         2.5653691510    -4.1641560461    -0.0073804203
Bq         2.6450926786    -4.1109247439    -0.1829098698
Bq         2.5255073872    -4.1907716972     0.0803843044
Bq         2.6849544424    -4.0843090928    -0.2706745945
Bq         2.4856456234    -4.2173873483     0.1681490291
Bq         2.7248162062    -4.0576934417    -0.3584393192
Bq         2.4457838596    -4.2440029994     0.2559137538
Bq         2.7646779699    -4.0310777905    -0.4462040439
Bq         2.4059220959    -4.2706186505     0.3436784785
Bq         2.8045397337    -4.0044621394    -0.5339687686
Bq         2.6052309148    -4.1375403950    -0.0951451451
Bq         2.5543626776    -4.0677630634     0.0168528301
Bq         2.6340862052    -4.0145317612    -0.1586766193
Bq         2.5145009139    -4.0943787145     0.1046175548
Bq         2.6739479690    -3.9879161100    -0.2464413440
Bq         2.4746391501    -4.1209943656     0.1923822795
Bq         2.7138097328    -3.9613004589    -0.3342060687
Bq         2.4347773863    -4.1476100167     0.2801470043
Bq         2.7536714966    -3.9346848078    -0.4219707934
Bq         2.3949156225    -4.1742256678     0.3679117290
Bq         2.7935332604    -3.9080691567    -0.5097355182
Bq         2.5942244414    -4.0411474123    -0.0709118946
Bq         2.5433562043    -3.9713700807     0.0410860806
Bq         2.6230797318    -3.9181387784    -0.1344433689
Bq         2.5034944405    -3.9979857318     0.1288508053
Bq         2.6629414956    -3.8915231273    -0.2222080936
Bq         2.4636326767    -4.0246013829     0.2166155300
Bq         2.7028032594    -3.8649074762    -0.3099728183
Bq         2.4237709129    -4.0512170340     0.3043802547
Bq         2.7426650232    -3.8382918251    -0.3977375430
Bq         2.3839091491    -4.0778326851     0.3921449794
Bq         2.7825267870    -3.8116761740    -0.4855022677
Bq         2.5832179681    -3.9447544296    -0.0466786441
Bq         2.5323497309    -3.8749770979     0.0653193310
Bq         2.6120732585    -3.8217457957    -0.1102101184
Bq         2.4924879671    -3.9015927491     0.1530840557
Bq         2.6519350223    -3.7951301446    -0.1979748431
Bq         2.4526262033    -3.9282084002     0.2408487805
Bq         2.6917967860    -3.7685144935    -0.2857395678
Bq         2.4127644395    -3.9548240513     0.3286135052
Bq         2.7316585498    -3.7418988424    -0.3735042925
Bq         2.3729026757    -3.9814397024     0.4163782299
Bq         2.7715203136    -3.7152831913    -0.4612690172
Bq         2.5722114947    -3.8483614468    -0.0224453937
Bq         2.5213432575    -3.7785841152     0.0895525815
Bq         2.6010667851    -3.7253528130    -0.0859768679
Bq         2.4814814937    -3.8051997663     0.1773173062
Bq         2.6409285489    -3.6987371619    -0.1737415926
Bq         2.4416197299    -3.8318154174     0.2650820309
Bq         2.6807903127    -3.6721215108    -0.2615063174
Bq         2.4017579662    -3.8584310686     0.3528467556
Bq         2.7206520765    -3.6455058597    -0.3492710421
Bq         2.3618962024    -3.8850467197     0.4406114803
Bq         2.7605138402    -3.6188902086    -0.4370357668
Bq         2.5612050213    -3.7519684641     0.0017878568
Bq         2.5103367841    -3.6821911325     0.1137858319
Bq         2.5900603117    -3.6289598303    -0.0617436175
Bq         2.4704750204    -3.7088067836     0.2015505567
Bq         2.6299220755    -3.6023441792    -0.1495083422
Bq         2.4306132566    -3.7354224347     0.2893152814
Bq         2.6697838393    -3.5757285281    -0.2372730669
Bq         2.3907514928    -3.7620380858     0.3770800061
Bq         2.7096456031    -3.5491128770    -0.3250377916
Bq         2.3508897290    -3.7886537369     0.4648447308
Bq         2.7495073669    -3.5224972259    -0.4128025163
Bq         2.5501985479    -3.6555754814     0.0260211072
Bq         2.4993303108    -3.5857981498     0.1380190824
Bq         2.5790538384    -3.5325668476    -0.0375103670
Bq         2.4594685470    -3.6124138009     0.2257838071
Bq         2.6189156021    -3.5059511965    -0.1252750917
Bq         2.4196067832    -3.6390294520     0.3135485318
Bq         2.6587773659    -3.4793355454    -0.2130398164
Bq         2.3797450194    -3.6656451031     0.4013132565
Bq         2.6986391297    -3.4527198943    -0.3008045412
Bq         2.3398832556    -3.6922607542     0.4890779813
Bq         2.7385008935    -3.4261042432    -0.3885692659
Bq         2.5391920746    -3.5591824987     0.0502543577
Bq         2.4883238374    -3.4894051671     0.1622523329
Bq         2.5680473650    -3.4361738649    -0.0132771166
Bq         2.4484620736    -3.5160208182     0.2500170576
Bq         2.6079091288    -3.4095582138    -0.1010418413
Bq         2.4086003098    -3.5426364693     0.3377817823
Bq         2.6477708926    -3.3829425627    -0.1888065660
Bq         2.3687385460    -3.5692521204     0.4255465070
Bq         2.6876326563    -3.3563269116    -0.2765712907
Bq         2.3288767823    -3.5958677715     0.5133112317
Bq         2.7274944201    -3.3297112605    -0.3643360154
Bq         2.5281856012    -3.4627895160     0.0744876082
Bq         2.4773173640    -3.3930121844     0.1864855833
Bq         2.5570408916    -3.3397808822     0.0109561339
Bq         2.4374556002    -3.4196278355     0.2742503080
Bq         2.5969026554    -3.3131652311    -0.0768085908
Bq         2.3975938365    -3.4462434866     0.3620150327
Bq         2.6367644192    -3.2865495800    -0.1645733155
Bq         2.3577320727    -3.4728591377     0.4497797575
Bq         2.6766261830    -3.2599339288    -0.2523380402
Bq         2.3178703089    -3.4994747888     0.5375444822
Bq         2.7164879468    -3.2333182777    -0.3401027650
Bq         2.5171791278    -3.3663965333     0.0987208586
Bq         2.4663108907    -3.2966192017     0.2107188338
Bq         2.5460344182    -3.2433878995     0.0351893844
Bq         2.4264491269    -3.3232348528     0.2984835585
Bq         2.5858961820    -3.2167722484    -0.0525753404
Bq         2.3865873631    -3.3498505039     0.3862482832
Bq         2.6257579458    -3.1901565972    -0.1403400651
Bq         2.3467255993    -3.3764661550     0.4740130079
Bq         2.6656197096    -3.1635409461    -0.2281047898
Bq         2.3068638355    -3.4030818061     0.5617777326
Bq         2.7054814734    -3.1369252950    -0.3158695145
Bq         2.5061726544    -3.2700035506     0.1229541091
Bq         2.4553044173    -3.2002262190     0.2349520842
Bq         2.5350279449    -3.1469949167     0.0594226348
Bq         2.4154426535    -3.2268418701     0.3227168090
Bq         2.5748897087    -3.1203792656    -0.0283420899
Bq         2.3755808897    -3.2534575212     0.4104815337
Bq         2.6147514724    -3.0937636145    -0.1161068146
Bq         2.3357191259    -3.2800731723     0.4982462584
Bq         2.6546132362    -3.0671479634    -0.2038715393
Bq         2.2958573621    -3.3066888234     0.5860109831
Bq         2.6944750000    -3.0405323123    -0.2916362640
Bq         2.4951661811    -3.1736105679     0.1471873595
Bq         2.4442979439    -3.1038332362     0.2591853347
Bq         2.5240214715    -3.0506019340     0.0836558853
Bq         2.4044361801    -3.1304488874     0.3469500594
Bq         2.5638832353    -3.0239862829    -0.0041088394
Bq         2.3645744163    -3.1570645385     0.4347147841
Bq         2.6037449991    -2.9973706318    -0.0918735642
Bq         2.3247126526    -3.1836801896     0.5224795088
Bq         2.6436067629    -2.9707549807    -0.1796382889
Bq         2.2848508888    -3.2102958407     0.6102442335
Bq         2.6834685266    -2.9441393296    -0.2674030136
Bq         2.4841597077    -3.0772175851     0.1714206100
Bq         2.4332914705    -3.0074402535     0.2834185852
Bq         2.5130149981    -2.9542089513     0.1078891357
Bq         2.3934297068    -3.0340559046     0.3711833099
Bq         2.5528767619    -2.9275933002     0.0201244110
Bq         2.3535679430    -3.0606715558     0.4589480346
Bq         2.5927385257    -2.9009776491    -0.0676403137
Bq         2.3137061792    -3.0872872069     0.5467127593
Bq         2.6326002895    -2.8743619980    -0.1554050384
Bq         2.2738444154    -3.1139028580     0.6344774840
Bq         2.6724620533    -2.8477463469    -0.2431697631
Bq         2.4731532343    -2.9808246024     0.1956538604
Bq         2.4222849972    -2.9110472708     0.3076518356
Bq         2.5020085247    -2.8578159686     0.1321223862
Bq         2.3824232334    -2.9376629219     0.3954165603
Bq         2.5418702885    -2.8312003175     0.0443576615
Bq         2.3425614696    -2.9642785730     0.4831812850
Bq         2.5817320523    -2.8045846664    -0.0434070632
Bq         2.3026997058    -2.9908942241     0.5709460098
Bq         2.6215938161    -2.7779690153    -0.1311717880
Bq         2.2628379420    -3.0175098753     0.6587107345
Bq         2.6614555799    -2.7513533642    -0.2189365127
Bq         2.4621467610    -2.8844316197     0.2198871109
Bq         2.4112785238    -2.8146542881     0.3318850861
Bq         2.4910020514    -2.7614229859     0.1563556366
Bq         2.3714167600    -2.8412699392     0.4196498108
Bq         2.5308638152    -2.7348073348     0.0685909119
Bq         2.3315549962    -2.8678855903     0.5074145355
Bq         2.5707255790    -2.7081916837    -0.0191738128
Bq         2.2916932324    -2.8945012414     0.5951792602
Bq         2.6105873427    -2.6815760326    -0.1069385375
Bq         2.2518314687    -2.9211168925     0.6829439849
Bq         2.6504491065    -2.6549603815    -0.1947032622
Bq         2.4511402876    -2.7880386370     0.2441203614
Bq         2.4002720504    -2.7182613054     0.3561183365
Bq         2.4799955780    -2.6650300032     0.1805888871
Bq         2.3604102866    -2.7448769565     0.4438830612
Bq         2.5198573418    -2.6384143521     0.0928241624
Bq         2.3205485229    -2.7714926076     0.5316477860
Bq         2.5597191056    -2.6117987010     0.0050594377
Bq         2.2806867591    -2.7981082587     0.6194125107
Bq         2.5995808694    -2.5851830499    -0.0827052870
Bq         2.2408249953    -2.8247239098     0.7071772354
Bq         2.6394426332    -2.5585673988    -0.1704700117
Bq         2.4401338142    -2.6916456543     0.2683536118
Bq         2.3892655771    -2.6218683227     0.3803515870
Bq         2.4689891046    -2.5686370205     0.2048221376
Bq         2.3494038133    -2.6484839738     0.4681163117
Bq         2.5088508684    -2.5420213694     0.1170574128
Bq         2.3095420495    -2.6750996249     0.5558810364
Bq         2.5487126322    -2.5154057183     0.0292926881
Bq         2.2696802857    -2.7017152760     0.6436457611
Bq         2.5885743960    -2.4887900672    -0.0584720366
Bq         2.2298185219    -2.7283309271     0.7314104858
Bq         2.6284361598    -2.4621744160    -0.1462367613
Bq         2.4291273408    -2.5952526716     0.2925868623
Bq         2.3782591037    -2.5254753400     0.4045848374
Bq         2.4579826313    -2.4722440378     0.2290553880
Bq         2.3383973399    -2.5520909911     0.4923495622
Bq         2.4978443950    -2.4456283867     0.1412906633
Bq         2.2985355761    -2.5787066422     0.5801142869
Bq         2.5377061588    -2.4190127355     0.0535259386

1
2
3
4
5
6
7
8
9
10
11
12
13
14
15
16
17
18
19
20
21
22
23
24
25
26
27
28
29
30
31
32
33
34
35
36
37
38
39
40
41
42
43
44
45
46
47
48
49
50
51
52
53
54
55
56
57
58
59
60
61
62
63
64
65
66
67
68
69
70
71
72
73
74
75
76
77
78
79
80
81
82
83
84
85
86
87
88
89
90
91
92
93
94
95
96
97
98
99
100
101
102
103
104
105
106
107
108
109
110
111
112
113
114
115
116
117
118
119
120
121
122
123
124
125
126
127
128
129
130
131
132
133
134
135
136
137
138
139
140
141
142
143
144
145
146
147
148
149
150
151
152
153
154
155
156
157
158
159
160
161
162
163
164
165
166
167
168
169
170
171
172
173
174
175
176
177
178
179
180
181
182
183
184
185
186
187
188
189
190
191
192
193
194
195
196
197
198
199
200
201
202
203
204
205
206
207
208
209
210
211
212
213
214
215
216
217
218
219
220
221
222
223
224
225
226
227
228
229
230
231
232
233
234
235
236

