%nproc=8
%mem=1000MB
# rb3lyp/6-311+g** NMR geom=connectivity

Title

0 1
C    -4.0500558   -0.5771862    0.8136712
H    -5.0263804   -1.0082727    1.0024760
C    -3.9381552    0.6617804    0.2400876
H    -4.8252424    1.2338890   -0.0111295
C    -2.6768410    1.2433246    0.0057578
C    -1.4974121    0.5051527    0.2848253
C    -1.6508332   -0.7338728    0.9404026
H    -0.7713646   -1.2730967    1.2633753
C    -2.8898548   -1.2624035    1.1994307
H    -2.9683706   -2.2124563    1.7152676
C    -2.5773185    2.5963696   -0.4192930
H    -3.4870728    3.1412239   -0.6474055
C    -1.3741895    3.2147896   -0.4364030
H    -1.2997315    4.2742019   -0.6578144
C    -0.1719488    2.4994090   -0.1734588
C    -0.2043917    1.1018437    0.0192689
C     1.0513491    3.2042560   -0.0676222
H     1.0427344    4.2819499   -0.1896997
C     2.1942091    2.5487446    0.2579577
H     3.1168527    3.0912848    0.4334727
C     2.2216473    1.1336562    0.2934990
C     1.0486931    0.3945528    0.0302412
C     3.4483363    0.4614633    0.5573939
H     4.3095794    1.0606054    0.8334846
C     3.5427346   -0.8855926    0.4749463
H     4.4731467   -1.3939704    0.7038822
C     2.4490052   -1.6474447   -0.0196319
C     1.2150704   -1.0057258   -0.3013573
C     0.2531113   -1.7434440   -1.0216591
H    -0.6541356   -1.2535051   -1.3462847
C     0.4494193   -3.0628597   -1.3413779
H    -0.3083162   -3.5944309   -1.9054060
C     1.6251726   -3.7207967   -0.9552541
H     1.7670048   -4.7687404   -1.1927019
C     2.6109872   -3.0144177   -0.3183050
H     3.5525612   -3.4902813   -0.0646367
Bq         1.0161383439     0.8149515629     0.1085970143
Bq         0.9437585787     0.8395189883     0.6027200873
Bq         0.9299947596     0.9443116888     0.6966830971
Bq         0.9589466657     0.9344847186     0.4990338679
Bq         0.9155188065     0.9492251739     0.7955077117
Bq         0.9734226187     0.9295712335     0.4002092533
Bq         0.9010428535     0.9541386589     0.8943323262
Bq         0.9878985718     0.9246577484     0.3013846387
Bq         0.8865669005     0.9590521440     0.9931569408
Bq         1.0023745248     0.9197442634     0.2025600241
Bq         0.8720909474     0.9639656291     1.0919815554
Bq         1.0168504779     0.9148307783     0.1037354096
Bq         0.9444707126     0.9393982037     0.5978584825
Bq         0.9307068935     1.0441909041     0.6918214923
Bq         0.9596587996     1.0343639340     0.4941722631
Bq         0.9162309405     1.0491043892     0.7906461069
Bq         0.9741347527     1.0294504489     0.3953476486
Bq         0.9017549874     1.0540178743     0.8894707215
Bq         0.9886107057     1.0245369638     0.2965230340
Bq         0.8872790344     1.0589313594     0.9882953361
Bq         1.0030866588     1.0196234787     0.1976984194
Bq         0.8728030814     1.0638448445     1.0871199506
Bq         1.0175626118     1.0147099936     0.0988738048
Bq         0.9451828466     1.0392774191     0.5929968777
Bq         0.9314190275     1.1440701195     0.6869598875
Bq         0.9603709336     1.1342431494     0.4893106584
Bq         0.9169430744     1.1489836046     0.7857845021
Bq         0.9748468866     1.1293296643     0.3904860438
Bq         0.9024671214     1.1538970897     0.8846091167
Bq         0.9893228397     1.1244161792     0.2916614292
Bq         0.8879911683     1.1588105748     0.9834337313
Bq         1.0037987927     1.1195026941     0.1928368146
Bq         0.8735152153     1.1637240599     1.0822583459
Bq         1.0182747457     1.1145892090     0.0940122000
Bq         0.9458949805     1.1391566344     0.5881352730
Bq         0.9321311614     1.2439493349     0.6820982828
Bq         0.9610830675     1.2341223647     0.4844490536
Bq         0.9176552084     1.2488628200     0.7809228974
Bq         0.9755590206     1.2292088797     0.3856244390
Bq         0.9031792553     1.2537763051     0.8797475119
Bq         0.9900349736     1.2242953946     0.2867998244
Bq         0.8887033023     1.2586897901     0.9785721265
Bq         1.0045109266     1.2193819095     0.1879752099
Bq         0.8742273492     1.2636032752     1.0773967411
Bq         1.0189868797     1.2144684244     0.0891505953
Bq         0.9466071145     1.2390358498     0.5832736682
Bq         0.9328432954     1.3438285503     0.6772366780
Bq         0.9617952014     1.3340015801     0.4795874488
Bq         0.9183673423     1.3487420354     0.7760612926
Bq         0.9762711545     1.3290880950     0.3807628343
Bq         0.9038913893     1.3536555204     0.8748859072
Bq         0.9907471075     1.3241746099     0.2819382197
Bq         0.8894154362     1.3585690055     0.9737105218
Bq         1.0052230606     1.3192611249     0.1831136051
Bq         0.8749394832     1.3634824906     1.0725351363
Bq         1.0196990136     1.3143476398     0.0842889905
Bq         0.9473192484     1.3389150652     0.5784120634
Bq         0.9335554293     1.4437077657     0.6723750732
Bq         0.9625073354     1.4338807955     0.4747258441
Bq         0.9190794763     1.4486212507     0.7711996878
Bq         0.9769832884     1.4289673104     0.3759012295
Bq         0.9046035232     1.4535347358     0.8700243024
Bq         0.9914592415     1.4240538253     0.2770766149
Bq         0.8901275702     1.4584482209     0.9688489170
Bq         1.0059351945     1.4191403402     0.1782520003
Bq         0.8756516171     1.4633617060     1.0676735316
Bq         1.0204111476     1.4142268552     0.0794273857
Bq         0.9480313823     1.4387942806     0.5735504587
Bq         0.9342675632     1.5435869810     0.6675134685
Bq         0.9632194693     1.5337600109     0.4698642393
Bq         0.9197916102     1.5485004661     0.7663380831
Bq         0.9776954224     1.5288465258     0.3710396247
Bq         0.9053156572     1.5534139512     0.8651626976
Bq         0.9921713754     1.5239330407     0.2722150101
Bq         0.8908397041     1.5583274363     0.9639873122
Bq         1.0066473285     1.5190195556     0.1733903956
Bq         0.8763637511     1.5632409214     1.0628119268
Bq         1.0211232815     1.5141060705     0.0745657810
Bq         0.9487435163     1.5386734959     0.5686888539
Bq         0.9349796972     1.6434661964     0.6626518637
Bq         0.9639316033     1.6336392262     0.4650026345
Bq         0.9205037441     1.6483796815     0.7614764783
Bq         0.9784075563     1.6287257412     0.3661780200
Bq         0.9060277911     1.6532931666     0.8603010929
Bq         0.9928835094     1.6238122561     0.2673534054
Bq         0.8915518381     1.6582066517     0.9591257075
Bq         1.0073594624     1.6188987710     0.1685287908
Bq         0.8770758850     1.6631201367     1.0579503220
Bq         1.0218354154     1.6139852859     0.0697041762
Bq         0.9494556502     1.6385527113     0.5638272491
Bq         0.9356918311     1.7433454118     0.6577902589
Bq         0.9646437372     1.7335184416     0.4601410298
Bq         0.9212158781     1.7482588969     0.7566148735
Bq         0.9791196903     1.7286049565     0.3613164152
Bq         0.9067399250     1.7531723819     0.8554394881
Bq         0.9935956433     1.7236914715     0.2624918006
Bq         0.8922639720     1.7580858670     0.9542641027
Bq         1.0080715963     1.7187779864     0.1636671860
Bq         0.8777880189     1.7629993521     1.0530887173
Bq         1.0225475494     1.7138645013     0.0648425714
Bq         0.9501677842     1.7384319267     0.5589656444
Bq         0.9364039651     1.8432246272     0.6529286542
Bq         0.9653558712     1.8333976570     0.4552794250
Bq         0.9219280120     1.8481381122     0.7517532688
Bq         0.9798318242     1.8284841719     0.3564548104
Bq         0.9074520590     1.8530515973     0.8505778833
Bq         0.9943077772     1.8235706868     0.2576301958
Bq         0.8929761059     1.8579650824     0.9494024979
Bq         1.0087837303     1.8186572017     0.1588055813
Bq         0.8785001529     1.8628785675     1.0482271125
Bq         1.0232596833     1.8137437167     0.0599809667
Bq         0.9508799181     1.8383111421     0.5541040396
Bq         0.9371160990     1.9431038425     0.6480670494
Bq         0.9660680051     1.9332768724     0.4504178202
Bq         0.9226401460     1.9480173276     0.7468916640
Bq         0.9805439581     1.9283633873     0.3515932057
Bq         0.9081641929     1.9529308127     0.8457162786
Bq         0.9950199112     1.9234499022     0.2527685911
Bq         0.8936882399     1.9578442978     0.9445408932
Bq         1.0094958642     1.9185364171     0.1539439765
Bq         0.8792122868     1.9627577829     1.0433655077
Bq         1.0239718173     1.9136229320     0.0551193619
Bq         0.9515920521     1.9381903575     0.5492424348
Bq         0.9378282330     2.0429830579     0.6432054446
Bq         0.9667801390     2.0331560878     0.4455562155
Bq         0.9233522799     2.0478965430     0.7420300592
Bq         0.9812560921     2.0282426027     0.3467316009
Bq         0.9088763269     2.0528100281     0.8408546738
Bq         0.9957320451     2.0233291176     0.2479069863
Bq         0.8944003738     2.0577235132     0.9396792884
Bq         1.0102079982     2.0184156325     0.1490823717
Bq         0.8799244208     2.0626369982     1.0385039030
Bq         1.0246839512     2.0135021474     0.0502577571
Bq         0.9523041860     2.0380695728     0.5443808301
Bq         0.9385403669     2.1428622733     0.6383438399
Bq         0.9674922730     2.1330353031     0.4406946107
Bq         0.9240644138     2.1477757584     0.7371684545
Bq         0.9819682260     2.1281218180     0.3418699961
Bq         0.9095884608     2.1526892435     0.8359930690
Bq         0.9964441791     2.1232083330     0.2430453815
Bq         0.8951125078     2.1576027285     0.9348176836
Bq         1.0109201321     2.1182948479     0.1442207670
Bq         0.8806365547     2.1625162136     1.0336422982
Bq         1.0253960852     2.1133813628     0.0453961524
Bq         0.9530163199     2.1379487882     0.5395192253
Bq         0.9392525008     2.2427414887     0.6334822351
Bq         0.9682044069     2.2329145185     0.4358330059
Bq         0.9247765478     2.2476549738     0.7323068497
Bq         0.9826803600     2.2280010334     0.3370083914
Bq         0.9103005947     2.2525684588     0.8311314643
Bq         0.9971563130     2.2230875483     0.2381837768
Bq         0.8958246417     2.2574819439     0.9299560789
Bq         1.0116322661     2.2181740633     0.1393591622
Bq         0.8813486887     2.2623954290     1.0287806934
Bq         1.0261082191     2.2132605782     0.0405345476
Bq         0.9537284539     2.2378280036     0.5346576205
Bq         0.9399646348     2.3426207040     0.6286206303
Bq         0.9689165409     2.3327937339     0.4309714012
Bq         0.9254886817     2.3475341891     0.7274452449
Bq         0.9833924939     2.3278802488     0.3321467866
Bq         0.9110127287     2.3524476742     0.8262698595
Bq         0.9978684470     2.3229667637     0.2333221720
Bq         0.8965367756     2.3573611593     0.9250944741
Bq         1.0123444000     2.3180532786     0.1344975574
Bq         0.8820608226     2.3622746444     1.0239190887
Bq         1.0268203530     2.3131397936     0.0356729428
Bq         0.9544405878     2.3377072190     0.5297960158
Bq         0.9406767687     2.4424999194     0.6237590256
Bq         0.9696286748     2.4326729493     0.4261097964
Bq         0.9262008157     2.4474134045     0.7225836402
Bq         0.9841046279     2.4277594642     0.3272851818
Bq         0.9117248626     2.4523268896     0.8214082547
Bq         0.9985805809     2.4228459791     0.2284605672
Bq         0.8972489096     2.4572403747     0.9202328693
Bq         1.0130565339     2.4179324940     0.1296359527
Bq         0.8827729565     2.4621538598     1.0190574839
Bq         1.0275324870     2.4130190089     0.0308113381
Bq         0.9551527218     2.4375864343     0.5249344110
Bq         0.9413889027     2.5423791348     0.6188974208
Bq         0.9703408087     2.5325521646     0.4212481916
Bq         0.9269129496     2.5472926199     0.7177220354
Bq         0.9848167618     2.5276386796     0.3224235771
Bq         0.9124369966     2.5522061050     0.8165466500
Bq         0.9992927148     2.5227251945     0.2235989625
Bq         0.8979610435     2.5571195900     0.9153712646
Bq         1.0137686679     2.5178117094     0.1247743479
Bq         0.8834850905     2.5620330751     1.0141958791
Bq         1.0282446209     2.5128982243     0.0259497333
Bq         0.9558648557     2.5374656497     0.5200728062
Bq         0.9421010366     2.6422583502     0.6140358160
Bq         0.9710529427     2.6324313800     0.4163865869
Bq         0.9276250836     2.6471718353     0.7128604306
Bq         0.9855288957     2.6275178949     0.3175619723
Bq         0.9131491305     2.6520853203     0.8116850452
Bq         1.0000048488     2.6226044098     0.2187373577
Bq         0.8986731775     2.6569988054     0.9105096598
Bq         1.0144808018     2.6176909248     0.1199127431
Bq         0.8841972244     2.6619122905     1.0093342744
Bq         1.0289567549     2.6127774397     0.0210881285
Bq         0.9565769896     2.6373448651     0.5152112015

1
2
3
4
5
6
7
8
9
10
11
12
13
14
15
16
17
18
19
20
21
22
23
24
25
26
27
28
29
30
31
32
33
34
35
36
37
38
39
40
41
42
43
44
45
46
47
48
49
50
51
52
53
54
55
56
57
58
59
60
61
62
63
64
65
66
67
68
69
70
71
72
73
74
75
76
77
78
79
80
81
82
83
84
85
86
87
88
89
90
91
92
93
94
95
96
97
98
99
100
101
102
103
104
105
106
107
108
109
110
111
112
113
114
115
116
117
118
119
120
121
122
123
124
125
126
127
128
129
130
131
132
133
134
135
136
137
138
139
140
141
142
143
144
145
146
147
148
149
150
151
152
153
154
155
156
157
158
159
160
161
162
163
164
165
166
167
168
169
170
171
172
173
174
175
176
177
178
179
180
181
182
183
184
185
186
187
188
189
190
191
192
193
194
195
196
197
198
199
200
201
202
203
204
205
206
207
208
209
210
211
212
213
214
215
216
217
218
219
220
221
222
223
224
225
226
227
228
229
230
231
232
233
234
235
236

