%nproc=8
%mem=1000MB
# rb3lyp/6-311+g** NMR geom=connectivity

Title

0 1
C    -4.0500558   -0.5771862    0.8136712
H    -5.0263804   -1.0082727    1.0024760
C    -3.9381552    0.6617804    0.2400876
H    -4.8252424    1.2338890   -0.0111295
C    -2.6768410    1.2433246    0.0057578
C    -1.4974121    0.5051527    0.2848253
C    -1.6508332   -0.7338728    0.9404026
H    -0.7713646   -1.2730967    1.2633753
C    -2.8898548   -1.2624035    1.1994307
H    -2.9683706   -2.2124563    1.7152676
C    -2.5773185    2.5963696   -0.4192930
H    -3.4870728    3.1412239   -0.6474055
C    -1.3741895    3.2147896   -0.4364030
H    -1.2997315    4.2742019   -0.6578144
C    -0.1719488    2.4994090   -0.1734588
C    -0.2043917    1.1018437    0.0192689
C     1.0513491    3.2042560   -0.0676222
H     1.0427344    4.2819499   -0.1896997
C     2.1942091    2.5487446    0.2579577
H     3.1168527    3.0912848    0.4334727
C     2.2216473    1.1336562    0.2934990
C     1.0486931    0.3945528    0.0302412
C     3.4483363    0.4614633    0.5573939
H     4.3095794    1.0606054    0.8334846
C     3.5427346   -0.8855926    0.4749463
H     4.4731467   -1.3939704    0.7038822
C     2.4490052   -1.6474447   -0.0196319
C     1.2150704   -1.0057258   -0.3013573
C     0.2531113   -1.7434440   -1.0216591
H    -0.6541356   -1.2535051   -1.3462847
C     0.4494193   -3.0628597   -1.3413779
H    -0.3083162   -3.5944309   -1.9054060
C     1.6251726   -3.7207967   -0.9552541
H     1.7670048   -4.7687404   -1.1927019
C     2.6109872   -3.0144177   -0.3183050
H     3.5525612   -3.4902813   -0.0646367
Bq         2.0822513660    -1.1061962504     0.8144949314
Bq         2.2416984212    -0.9997336460     0.4634360325
Bq         2.0423896022    -1.1328119015     0.9022596561
Bq         2.2815601849    -0.9731179949     0.3756713078
Bq         2.0025278384    -1.1594275526     0.9900243808
Bq         2.3214219487    -0.9465023438     0.2879065831
Bq         1.9626660746    -1.1860432037     1.0777891055
Bq         2.3612837125    -0.9198866927     0.2001418584
Bq         2.1619748936    -1.0529649482     0.6389654820
Bq         2.1111066564    -0.9831876166     0.7509634571
Bq         2.1908301840    -0.9299563144     0.5754340077
Bq         2.0712448926    -1.0098032677     0.8387281819
Bq         2.2306919478    -0.9033406633     0.4876692830
Bq         2.0313831288    -1.0364189188     0.9264929066
Bq         2.2705537116    -0.8767250122     0.3999045583
Bq         1.9915213651    -1.0630345699     1.0142576313
Bq         2.3104154754    -0.8501093610     0.3121398336
Bq         1.9516596013    -1.0896502210     1.1020223560
Bq         2.3502772391    -0.8234937099     0.2243751089
Bq         2.1509684202    -0.9565719655     0.6631987324
Bq         2.1001001830    -0.8867946339     0.7751967076
Bq         2.1798237106    -0.8335633317     0.5996672582
Bq         2.0602384193    -0.9134102850     0.8629614323
Bq         2.2196854744    -0.8069476805     0.5119025335
Bq         2.0203766555    -0.9400259361     0.9507261570
Bq         2.2595472382    -0.7803320294     0.4241378088
Bq         1.9805148917    -0.9666415872     1.0384908817
Bq         2.2994090020    -0.7537163783     0.3363730840
Bq         1.9406531279    -0.9932572383     1.1262556065
Bq         2.3392707658    -0.7271007272     0.2486083593
Bq         2.1399619468    -0.8601789828     0.6874319829
Bq         2.0890937097    -0.7904016512     0.7994299581
Bq         2.1688172372    -0.7371703489     0.6239005086
Bq         2.0492319459    -0.8170173023     0.8871946828
Bq         2.2086790010    -0.7105546978     0.5361357839
Bq         2.0093701821    -0.8436329534     0.9749594075
Bq         2.2485407648    -0.6839390467     0.4483710592
Bq         1.9695084183    -0.8702486045     1.0627241322
Bq         2.2884025286    -0.6573233956     0.3606063345
Bq         1.9296466545    -0.8968642556     1.1504888569
Bq         2.3282642924    -0.6307077445     0.2728416098
Bq         2.1289554735    -0.7637860000     0.7116652333
Bq         2.0780872363    -0.6940086684     0.8236632085
Bq         2.1578107639    -0.6407773662     0.6481337591
Bq         2.0382254725    -0.7206243196     0.9114279332
Bq         2.1976725277    -0.6141617151     0.5603690344
Bq         1.9983637087    -0.7472399707     0.9991926579
Bq         2.2375342915    -0.5875460640     0.4726043097
Bq         1.9585019449    -0.7738556218     1.0869573827
Bq         2.2773960552    -0.5609304129     0.3848395850
Bq         1.9186401812    -0.8004712729     1.1747221074
Bq         2.3172578190    -0.5343147618     0.2970748602
Bq         2.1179490001    -0.6673930173     0.7358984838
Bq         2.0670807629    -0.5976156857     0.8478964590
Bq         2.1468042905    -0.5443843835     0.6723670096
Bq         2.0272189991    -0.6242313368     0.9356611837
Bq         2.1866660543    -0.5177687324     0.5846022848
Bq         1.9873572354    -0.6508469879     1.0234259084
Bq         2.2265278181    -0.4911530813     0.4968375601
Bq         1.9474954716    -0.6774626391     1.1111906331
Bq         2.2663895819    -0.4645374302     0.4090728354
Bq         1.9076337078    -0.7040782902     1.1989553578
Bq         2.3062513457    -0.4379217791     0.3213081107
Bq         2.1069425267    -0.5710000346     0.7601317343
Bq         2.0560742896    -0.5012227030     0.8721297094
Bq         2.1357978171    -0.4479914008     0.6966002600
Bq         2.0162125258    -0.5278383541     0.9598944341
Bq         2.1756595809    -0.4213757497     0.6088355353
Bq         1.9763507620    -0.5544540052     1.0476591589
Bq         2.2155213447    -0.3947600986     0.5210708106
Bq         1.9364889982    -0.5810696563     1.1354238836
Bq         2.2553831085    -0.3681444475     0.4333060859
Bq         1.8966272344    -0.6076853074     1.2231886083
Bq         2.2952448723    -0.3415287964     0.3455413612
Bq         2.0959360533    -0.4746070519     0.7843649847
Bq         2.0450678162    -0.4048297203     0.8963629599
Bq         2.1247913438    -0.3515984181     0.7208335105
Bq         2.0052060524    -0.4314453714     0.9841276846
Bq         2.1646531075    -0.3249827670     0.6330687858
Bq         1.9653442886    -0.4580610225     1.0718924093
Bq         2.2045148713    -0.2983671159     0.5453040610
Bq         1.9254825248    -0.4846766736     1.1596571340
Bq         2.2443766351    -0.2717514648     0.4575393363
Bq         1.8856207610    -0.5112923247     1.2474218587
Bq         2.2842383989    -0.2451358137     0.3697746116
Bq         2.0849295800    -0.3782140692     0.8085982352
Bq         2.0340613428    -0.3084367376     0.9205962104
Bq         2.1137848704    -0.2552054354     0.7450667609
Bq         1.9941995790    -0.3350523887     1.0083609351
Bq         2.1536466342    -0.2285897843     0.6573020362
Bq         1.9543378152    -0.3616680398     1.0961256598
Bq         2.1935083980    -0.2019741332     0.5695373115
Bq         1.9144760514    -0.3882836909     1.1838903845
Bq         2.2333701617    -0.1753584821     0.4817725868
Bq         1.8746142877    -0.4148993420     1.2716551092
Bq         2.2732319255    -0.1487428310     0.3940078621
Bq         2.0739231066    -0.2818210865     0.8328314856
Bq         2.0230548694    -0.2120437549     0.9448294608
Bq         2.1027783970    -0.1588124527     0.7693000114
Bq         1.9831931057    -0.2386594060     1.0325941855
Bq         2.1426401608    -0.1321968016     0.6815352867
Bq         1.9433313419    -0.2652750571     1.1203589102
Bq         2.1825019246    -0.1055811505     0.5937705620
Bq         1.9034695781    -0.2918907082     1.2081236349
Bq         2.2223636884    -0.0789654993     0.5060058372
Bq         1.8636078143    -0.3185063593     1.2958883597
Bq         2.2622254522    -0.0523498482     0.4182411125
Bq         2.0629166332    -0.1854281038     0.8570647361
Bq         2.0120483961    -0.1156507722     0.9690627113
Bq         2.0917719236    -0.0624194700     0.7935332618
Bq         1.9721866323    -0.1422664233     1.0568274360
Bq         2.1316336874    -0.0358038189     0.7057685371
Bq         1.9323248685    -0.1688820744     1.1445921607
Bq         2.1714954512    -0.0091881677     0.6180038124
Bq         1.8924631047    -0.1954977255     1.2323568854
Bq         2.2113572150     0.0174274834     0.5302390877
Bq         1.8526013409    -0.2221133766     1.3201216101
Bq         2.2512189788     0.0440431345     0.4424743630
Bq         2.0519101599    -0.0890351211     0.8812979866
Bq         2.6534209380    -4.9352999078    -0.2012464240
Bq         2.7331444656    -4.8820686056    -0.3767758734
Bq         2.6135591742    -4.9619155589    -0.1134816993
Bq         2.7730062293    -4.8554529545    -0.4645405981
Bq         2.5736974104    -4.9885312100    -0.0257169746
Bq         2.8128679931    -4.8288373034    -0.5523053229
Bq         2.5338356466    -5.0151468611     0.0620477501
Bq         2.8527297569    -4.8022216522    -0.6400700476
Bq         2.4939738828    -5.0417625122     0.1498124748
Bq         2.8925915207    -4.7756060011    -0.7278347723
Bq         2.6932827018    -4.9086842567    -0.2890111487
Bq         2.6424144646    -4.8389069251    -0.1770131735
Bq         2.7221379922    -4.7856756229    -0.3525426230
Bq         2.6025527008    -4.8655225762    -0.0892484488
Bq         2.7619997560    -4.7590599717    -0.4403073477
Bq         2.5626909370    -4.8921382273    -0.0014837241
Bq         2.8018615198    -4.7324443206    -0.5280720724
Bq         2.5228291733    -4.9187538784     0.0862810006
Bq         2.8417232836    -4.7058286695    -0.6158367971
Bq         2.4829674095    -4.9453695295     0.1740457253
Bq         2.8815850473    -4.6792130184    -0.7036015218
Bq         2.6822762284    -4.8122912740    -0.2647778983
Bq         2.6314079912    -4.7425139424    -0.1527799231
Bq         2.7111315188    -4.6892826401    -0.3283093725
Bq         2.5915462275    -4.7691295935    -0.0650151984
Bq         2.7509932826    -4.6626669890    -0.4160740972
Bq         2.5516844637    -4.7957452446     0.0227495263
Bq         2.7908550464    -4.6360513379    -0.5038388219
Bq         2.5118226999    -4.8223608957     0.1105142510
Bq         2.8307168102    -4.6094356868    -0.5916035467
Bq         2.4719609361    -4.8489765468     0.1982789758
Bq         2.8705785740    -4.5828200357    -0.6793682714
Bq         2.6712697550    -4.7158982912    -0.2405446478
Bq         2.6204015179    -4.6461209596    -0.1285466726
Bq         2.7001250454    -4.5928896574    -0.3040761221
Bq         2.5805397541    -4.6727366108    -0.0407819479
Bq         2.7399868092    -4.5662740063    -0.3918408468
Bq         2.5406779903    -4.6993522619     0.0469827768
Bq         2.7798485730    -4.5396583552    -0.4796055715
Bq         2.5008162265    -4.7259679130     0.1347475015
Bq         2.8197103368    -4.5130427041    -0.5673702962
Bq         2.4609544627    -4.7525835641     0.2225122262
Bq         2.8595721006    -4.4864270530    -0.6551350209
Bq         2.6602632817    -4.6195053085    -0.2163113973
Bq         2.6093950445    -4.5497279769    -0.1043134222
Bq         2.6891185721    -4.4964966747    -0.2798428716
Bq         2.5695332807    -4.5763436280    -0.0165486975
Bq         2.7289803359    -4.4698810236    -0.3676075963
Bq         2.5296715169    -4.6029592791     0.0712160273
Bq         2.7688420996    -4.4432653725    -0.4553723210
Bq         2.4898097531    -4.6295749303     0.1589807520
Bq         2.8087038634    -4.4166497214    -0.5431370457
Bq         2.4499479893    -4.6561905814     0.2467454767
Bq         2.8485656272    -4.3900340703    -0.6309017704
Bq         2.6492568083    -4.5231123258    -0.1920781469
Bq         2.5983885711    -4.4533349942    -0.0800801717
Bq         2.6781120987    -4.4001036920    -0.2556096211
Bq         2.5585268073    -4.4799506453     0.0076845530
Bq         2.7179738625    -4.3734880409    -0.3433743459
Bq         2.5186650436    -4.5065662964     0.0954492777
Bq         2.7578356263    -4.3468723898    -0.4311390706
Bq         2.4788032798    -4.5331819475     0.1832140024
Bq         2.7976973901    -4.3202567387    -0.5189037953
Bq         2.4389415160    -4.5597975986     0.2709787271
Bq         2.8375591539    -4.2936410876    -0.6066685200
Bq         2.6382503349    -4.4267193431    -0.1678448964
Bq         2.5873820978    -4.3569420115    -0.0558469213
Bq         2.6671056253    -4.3037107093    -0.2313763707
Bq         2.5475203340    -4.3835576626     0.0319178035
Bq         2.7069673891    -4.2770950582    -0.3191410954
Bq         2.5076585702    -4.4101733137     0.1196825282
Bq         2.7468291529    -4.2504794071    -0.4069058201
Bq         2.4677968064    -4.4367889648     0.2074472529
Bq         2.7866909167    -4.2238637560    -0.4946705448
Bq         2.4279350426    -4.4634046159     0.2952119776
Bq         2.8265526805    -4.1972481049    -0.5824352695
Bq         2.6272438615    -4.3303263604    -0.1436116460
Bq         2.5763756244    -4.2605490288    -0.0316136708
Bq         2.6560991520    -4.2073177266    -0.2071431202
Bq         2.5365138606    -4.2871646799     0.0561510539
Bq         2.6959609157    -4.1807020755    -0.2949078449

1
2
3
4
5
6
7
8
9
10
11
12
13
14
15
16
17
18
19
20
21
22
23
24
25
26
27
28
29
30
31
32
33
34
35
36
37
38
39
40
41
42
43
44
45
46
47
48
49
50
51
52
53
54
55
56
57
58
59
60
61
62
63
64
65
66
67
68
69
70
71
72
73
74
75
76
77
78
79
80
81
82
83
84
85
86
87
88
89
90
91
92
93
94
95
96
97
98
99
100
101
102
103
104
105
106
107
108
109
110
111
112
113
114
115
116
117
118
119
120
121
122
123
124
125
126
127
128
129
130
131
132
133
134
135
136
137
138
139
140
141
142
143
144
145
146
147
148
149
150
151
152
153
154
155
156
157
158
159
160
161
162
163
164
165
166
167
168
169
170
171
172
173
174
175
176
177
178
179
180
181
182
183
184
185
186
187
188
189
190
191
192
193
194
195
196
197
198
199
200
201
202
203
204
205
206
207
208
209
210
211
212
213
214
215
216
217
218
219
220
221
222
223
224
225
226
227
228
229
230
231
232
233
234
235
236

