%nproc=8
%mem=1000MB
# rb3lyp/6-311+g** NMR geom=connectivity

Title

0 1
C    -4.0500558   -0.5771862    0.8136712
H    -5.0263804   -1.0082727    1.0024760
C    -3.9381552    0.6617804    0.2400876
H    -4.8252424    1.2338890   -0.0111295
C    -2.6768410    1.2433246    0.0057578
C    -1.4974121    0.5051527    0.2848253
C    -1.6508332   -0.7338728    0.9404026
H    -0.7713646   -1.2730967    1.2633753
C    -2.8898548   -1.2624035    1.1994307
H    -2.9683706   -2.2124563    1.7152676
C    -2.5773185    2.5963696   -0.4192930
H    -3.4870728    3.1412239   -0.6474055
C    -1.3741895    3.2147896   -0.4364030
H    -1.2997315    4.2742019   -0.6578144
C    -0.1719488    2.4994090   -0.1734588
C    -0.2043917    1.1018437    0.0192689
C     1.0513491    3.2042560   -0.0676222
H     1.0427344    4.2819499   -0.1896997
C     2.1942091    2.5487446    0.2579577
H     3.1168527    3.0912848    0.4334727
C     2.2216473    1.1336562    0.2934990
C     1.0486931    0.3945528    0.0302412
C     3.4483363    0.4614633    0.5573939
H     4.3095794    1.0606054    0.8334846
C     3.5427346   -0.8855926    0.4749463
H     4.4731467   -1.3939704    0.7038822
C     2.4490052   -1.6474447   -0.0196319
C     1.2150704   -1.0057258   -0.3013573
C     0.2531113   -1.7434440   -1.0216591
H    -0.6541356   -1.2535051   -1.3462847
C     0.4494193   -3.0628597   -1.3413779
H    -0.3083162   -3.5944309   -1.9054060
C     1.6251726   -3.7207967   -0.9552541
H     1.7670048   -4.7687404   -1.1927019
C     2.6109872   -3.0144177   -0.3183050
H     3.5525612   -3.4902813   -0.0646367
Bq         3.3408083722    -0.7271007272     0.7034956232
Bq         3.1414995533    -0.8601789828     1.1423192468
Bq         3.0906313161    -0.7904016512     1.2543172220
Bq         3.1703548437    -0.7371703489     1.0787877725
Bq         3.0507695523    -0.8170173023     1.3420819467
Bq         3.2102166075    -0.7105546978     0.9910230478
Bq         3.0109077885    -0.8436329534     1.4298466714
Bq         3.2500783713    -0.6839390467     0.9032583231
Bq         2.9710460248    -0.8702486045     1.5176113961
Bq         3.2899401351    -0.6573233956     0.8154935984
Bq         2.9311842610    -0.8968642556     1.6053761208
Bq         3.3298018988    -0.6307077445     0.7277288737
Bq         3.1304930799    -0.7637860000     1.1665524973
Bq         3.0796248427    -0.6940086684     1.2785504724
Bq         3.1593483703    -0.6407773662     1.1030210230
Bq         3.0397630790    -0.7206243196     1.3663151971
Bq         3.1992101341    -0.6141617151     1.0152562983
Bq         2.9999013152    -0.7472399707     1.4540799219
Bq         3.2390718979    -0.5875460640     0.9274915736
Bq         2.9600395514    -0.7738556218     1.5418446466
Bq         3.2789336617    -0.5609304129     0.8397268489
Bq         2.9201777876    -0.8004712729     1.6296093713
Bq         3.3187954255    -0.5343147618     0.7519621242
Bq         3.1194866065    -0.6673930173     1.1907857477
Bq         3.0686183694    -0.5976156857     1.3027837229
Bq         3.1483418970    -0.5443843835     1.1272542735
Bq         3.0287566056    -0.6242313368     1.3905484476
Bq         3.1882036607    -0.5177687324     1.0394895488
Bq         2.9888948418    -0.6508469879     1.4783131723
Bq         3.2280654245    -0.4911530813     0.9517248240
Bq         2.9490330780    -0.6774626391     1.5660778970
Bq         3.2679271883    -0.4645374302     0.8639600993
Bq         2.9091713142    -0.7040782902     1.6538426217
Bq         3.3077889521    -0.4379217791     0.7761953746
Bq         3.1084801332    -0.5710000346     1.2150189982
Bq         3.0576118960    -0.5012227030     1.3270169733
Bq         3.1373354236    -0.4479914008     1.1514875239
Bq         3.0177501322    -0.5278383541     1.4147816981
Bq         3.1771971874    -0.4213757497     1.0637227992
Bq         2.9778883684    -0.5544540052     1.5025464228
Bq         3.2170589512    -0.3947600986     0.9759580745
Bq         2.9380266046    -0.5810696563     1.5903111475
Bq         3.2569207149    -0.3681444475     0.8881933498
Bq         2.8981648409    -0.6076853074     1.6780758722
Bq         3.2967824787    -0.3415287964     0.8004286251
Bq         3.0974736598    -0.4746070519     1.2392522486
Bq         3.0466054226    -0.4048297203     1.3512502238
Bq         3.1263289502    -0.3515984181     1.1757207744
Bq         3.0067436588    -0.4314453714     1.4390149485
Bq         3.1661907140    -0.3249827670     1.0879560497
Bq         2.9668818951    -0.4580610225     1.5267796732
Bq         3.2060524778    -0.2983671159     1.0001913250
Bq         2.9270201313    -0.4846766736     1.6145443979
Bq         3.2459142416    -0.2717514648     0.9124266002
Bq         2.8871583675    -0.5112923247     1.7023091227
Bq         3.2857760054    -0.2451358137     0.8246618755
Bq         3.0864671864    -0.3782140692     1.2634854991
Bq         3.0355989493    -0.3084367376     1.3754834743
Bq         3.1153224768    -0.2552054354     1.1999540248
Bq         2.9957371855    -0.3350523887     1.4632481990
Bq         3.1551842406    -0.2285897843     1.1121893001
Bq         2.9558754217    -0.3616680398     1.5510129237
Bq         3.1950460044    -0.2019741332     1.0244245754
Bq         2.9160136579    -0.3882836909     1.6387776484
Bq         3.2349077682    -0.1753584821     0.9366598507
Bq         2.8761518941    -0.4148993420     1.7265423731
Bq         3.2747695320    -0.1487428310     0.8488951260
Bq         3.0754607130    -0.2818210865     1.2877187495
Bq         3.0245924759    -0.2120437549     1.3997167247
Bq         3.1043160035    -0.1588124527     1.2241872753
Bq         2.9847307121    -0.2386594060     1.4874814494
Bq         3.1441777673    -0.1321968016     1.1364225506
Bq         2.9448689483    -0.2652750571     1.5752461741
Bq         3.1840395310    -0.1055811505     1.0486578259
Bq         2.9050071845    -0.2918907082     1.6630108989
Bq         3.2239012948    -0.0789654993     0.9608931012
Bq         2.8651454207    -0.3185063593     1.7507756236
Bq         3.2637630586    -0.0523498482     0.8731283764
Bq         3.0644542397    -0.1854281038     1.3119520000
Bq         3.0135860025    -0.1156507722     1.4239499752
Bq         3.0933095301    -0.0624194700     1.2484205258
Bq         2.9737242387    -0.1422664233     1.5117146999
Bq         3.1331712939    -0.0358038189     1.1606558010
Bq         2.9338624749    -0.1688820744     1.5994794246
Bq         3.1730330577    -0.0091881677     1.0728910763
Bq         2.8940007112    -0.1954977255     1.6872441493
Bq         3.2128948215     0.0174274834     0.9851263516
Bq         2.8541389474    -0.2221133766     1.7750088740
Bq         3.2527565852     0.0440431345     0.8973616269
Bq         3.0534477663    -0.0890351211     1.3361852505
Bq         3.6549585444    -4.9352999078     0.2536408399
Bq         3.7346820720    -4.8820686056     0.0781113905
Bq         3.6150967806    -4.9619155589     0.3414055646
Bq         3.7745438358    -4.8554529545    -0.0096533342
Bq         3.5752350169    -4.9885312100     0.4291702893
Bq         3.8144055996    -4.8288373034    -0.0974180589
Bq         3.5353732531    -5.0151468611     0.5169350140
Bq         3.8542673634    -4.8022216522    -0.1851827837
Bq         3.4955114893    -5.0417625122     0.6046997388
Bq         3.8941291272    -4.7756060011    -0.2729475084
Bq         3.6948203082    -4.9086842567     0.1658761152
Bq         3.6439520711    -4.8389069251     0.2778740904
Bq         3.7236755986    -4.7856756229     0.1023446409
Bq         3.6040903073    -4.8655225762     0.3656388151
Bq         3.7635373624    -4.7590599717     0.0145799162
Bq         3.5642285435    -4.8921382273     0.4534035398
Bq         3.8033991262    -4.7324443206    -0.0731848085
Bq         3.5243667797    -4.9187538784     0.5411682645
Bq         3.8432608900    -4.7058286695    -0.1609495332
Bq         3.4845050159    -4.9453695295     0.6289329892
Bq         3.8831226538    -4.6792130184    -0.2487142579
Bq         3.6838138349    -4.8122912740     0.1901093657
Bq         3.6329455977    -4.7425139424     0.3021073408
Bq         3.7126691253    -4.6892826401     0.1265778914
Bq         3.5930838339    -4.7691295935     0.3898720655
Bq         3.7525308891    -4.6626669890     0.0388131667
Bq         3.5532220701    -4.7957452446     0.4776367902
Bq         3.7923926528    -4.6360513379    -0.0489515580
Bq         3.5133603063    -4.8223608957     0.5654015150
Bq         3.8322544166    -4.6094356868    -0.1367162827
Bq         3.4734985425    -4.8489765468     0.6531662397
Bq         3.8721161804    -4.5828200357    -0.2244810075
Bq         3.6728073615    -4.7158982912     0.2143426161
Bq         3.6219391243    -4.6461209596     0.3263405913
Bq         3.7016626519    -4.5928896574     0.1508111419
Bq         3.5820773605    -4.6727366108     0.4141053160
Bq         3.7415244157    -4.5662740063     0.0630464171
Bq         3.5422155967    -4.6993522619     0.5018700407
Bq         3.7813861795    -4.5396583552    -0.0247183076
Bq         3.5023538330    -4.7259679130     0.5896347654
Bq         3.8212479433    -4.5130427041    -0.1124830323
Bq         3.4624920692    -4.7525835641     0.6773994901
Bq         3.8611097070    -4.4864270530    -0.2002477570
Bq         3.6618008881    -4.6195053085     0.2385758666
Bq         3.6109326509    -4.5497279769     0.3505738417
Bq         3.6906561785    -4.4964966747     0.1750443923
Bq         3.5710708872    -4.5763436280     0.4383385665
Bq         3.7305179423    -4.4698810236     0.0872796676
Bq         3.5312091234    -4.6029592791     0.5261032912
Bq         3.7703797061    -4.4432653725    -0.0004850571
Bq         3.4913473596    -4.6295749303     0.6138680159
Bq         3.8102414699    -4.4166497214    -0.0882497818
Bq         3.4514855958    -4.6561905814     0.7016327406
Bq         3.8501032337    -4.3900340703    -0.1760145065
Bq         3.6507944147    -4.5231123258     0.2628091170
Bq         3.5999261776    -4.4533349942     0.3748070922
Bq         3.6796497051    -4.4001036920     0.1992776428
Bq         3.5600644138    -4.4799506453     0.4625718169
Bq         3.7195114689    -4.3734880409     0.1115129181
Bq         3.5202026500    -4.5065662964     0.5503365416
Bq         3.7593732327    -4.3468723898     0.0237481933
Bq         3.4803408862    -4.5331819475     0.6381012663
Bq         3.7992349965    -4.3202567387    -0.0640165314
Bq         3.4404791224    -4.5597975986     0.7258659910
Bq         3.8390967603    -4.2936410876    -0.1517812561
Bq         3.6397879414    -4.4267193431     0.2870423675
Bq         3.5889197042    -4.3569420115     0.3990403427
Bq         3.6686432318    -4.3037107093     0.2235108932
Bq         3.5490579404    -4.3835576626     0.4868050674
Bq         3.7085049956    -4.2770950582     0.1357461685
Bq         3.5091961766    -4.4101733137     0.5745697921
Bq         3.7483667594    -4.2504794071     0.0479814438
Bq         3.4693344128    -4.4367889648     0.6623345168
Bq         3.7882285231    -4.2238637560    -0.0397832809
Bq         3.4294726491    -4.4634046159     0.7500992415
Bq         3.8280902869    -4.1972481049    -0.1275480056
Bq         3.6287814680    -4.3303263604     0.3112756179
Bq         3.5779132308    -4.2605490288     0.4232735931
Bq         3.6576367584    -4.2073177266     0.2477441437
Bq         3.5380514670    -4.2871646799     0.5110383178
Bq         3.6974985222    -4.1807020755     0.1599794190
Bq         3.4981897033    -4.3137803310     0.5988030425
Bq         3.7373602860    -4.1540864244     0.0722146943
Bq         3.4583279395    -4.3403959821     0.6865677673
Bq         3.7772220498    -4.1274707733    -0.0155500305
Bq         3.4184661757    -4.3670116332     0.7743324920
Bq         3.8170838136    -4.1008551222    -0.1033147552
Bq         3.6177749946    -4.2339333777     0.3355088684
Bq         3.5669067575    -4.1641560461     0.4475068436
Bq         3.6466302850    -4.1109247439     0.2719773941
Bq         3.5270449937    -4.1907716972     0.5352715683
Bq         3.6864920488    -4.0843090928     0.1842126694
Bq         3.4871832299    -4.2173873483     0.6230362930
Bq         3.7263538126    -4.0576934417     0.0964479447
Bq         3.4473214661    -4.2440029994     0.7108010177
Bq         3.7662155764    -4.0310777905     0.0086832200
Bq         3.4074597023    -4.2706186505     0.7985657424
Bq         3.8060773402    -4.0044621394    -0.0790815047
Bq         3.6067685212    -4.1375403950     0.3597421189
Bq         3.5559002841    -4.0677630634     0.4717400940
Bq         3.6356238117    -4.0145317612     0.2962106446
Bq         3.5160385203    -4.0943787145     0.5595048187
Bq         3.6754855754    -3.9879161100     0.2084459199
Bq         3.4761767565    -4.1209943656     0.6472695435
Bq         3.7153473392    -3.9613004589     0.1206811952
Bq         3.4363149927    -4.1476100167     0.7350342682
Bq         3.7552091030    -3.9346848078     0.0329164705
Bq         3.3964532289    -4.1742256678     0.8227989929
Bq         3.7950708668    -3.9080691567    -0.0548482542
Bq         3.5957620479    -4.0411474123     0.3839753693

1
2
3
4
5
6
7
8
9
10
11
12
13
14
15
16
17
18
19
20
21
22
23
24
25
26
27
28
29
30
31
32
33
34
35
36
37
38
39
40
41
42
43
44
45
46
47
48
49
50
51
52
53
54
55
56
57
58
59
60
61
62
63
64
65
66
67
68
69
70
71
72
73
74
75
76
77
78
79
80
81
82
83
84
85
86
87
88
89
90
91
92
93
94
95
96
97
98
99
100
101
102
103
104
105
106
107
108
109
110
111
112
113
114
115
116
117
118
119
120
121
122
123
124
125
126
127
128
129
130
131
132
133
134
135
136
137
138
139
140
141
142
143
144
145
146
147
148
149
150
151
152
153
154
155
156
157
158
159
160
161
162
163
164
165
166
167
168
169
170
171
172
173
174
175
176
177
178
179
180
181
182
183
184
185
186
187
188
189
190
191
192
193
194
195
196
197
198
199
200
201
202
203
204
205
206
207
208
209
210
211
212
213
214
215
216
217
218
219
220
221
222
223
224
225
226
227
228
229
230
231
232
233
234
235
236

