%nproc=8
%mem=1000MB
# rb3lyp/6-311+g** NMR geom=connectivity

Title

0 1
C    -4.0500558   -0.5771862    0.8136712
H    -5.0263804   -1.0082727    1.0024760
C    -3.9381552    0.6617804    0.2400876
H    -4.8252424    1.2338890   -0.0111295
C    -2.6768410    1.2433246    0.0057578
C    -1.4974121    0.5051527    0.2848253
C    -1.6508332   -0.7338728    0.9404026
H    -0.7713646   -1.2730967    1.2633753
C    -2.8898548   -1.2624035    1.1994307
H    -2.9683706   -2.2124563    1.7152676
C    -2.5773185    2.5963696   -0.4192930
H    -3.4870728    3.1412239   -0.6474055
C    -1.3741895    3.2147896   -0.4364030
H    -1.2997315    4.2742019   -0.6578144
C    -0.1719488    2.4994090   -0.1734588
C    -0.2043917    1.1018437    0.0192689
C     1.0513491    3.2042560   -0.0676222
H     1.0427344    4.2819499   -0.1896997
C     2.1942091    2.5487446    0.2579577
H     3.1168527    3.0912848    0.4334727
C     2.2216473    1.1336562    0.2934990
C     1.0486931    0.3945528    0.0302412
C     3.4483363    0.4614633    0.5573939
H     4.3095794    1.0606054    0.8334846
C     3.5427346   -0.8855926    0.4749463
H     4.4731467   -1.3939704    0.7038822
C     2.4490052   -1.6474447   -0.0196319
C     1.2150704   -1.0057258   -0.3013573
C     0.2531113   -1.7434440   -1.0216591
H    -0.6541356   -1.2535051   -1.3462847
C     0.4494193   -3.0628597   -1.3413779
H    -0.3083162   -3.5944309   -1.9054060
C     1.6251726   -3.7207967   -0.9552541
H     1.7670048   -4.7687404   -1.1927019
C     2.6109872   -3.0144177   -0.3183050
H     3.5525612   -3.4902813   -0.0646367
Bq         3.6772819706     2.2163855509     0.9051704158
Bq         3.5488876490     2.1452472558     1.3831392863
Bq         3.8043375615    -2.8181151051     0.8176488642
Bq         3.8556952902    -2.7896597870     0.6264613160
Bq         3.7786586972    -2.8323427641     0.9132426383
Bq         3.8813741545    -2.7754321280     0.5308675419
Bq         3.7529798329    -2.8465704231     1.0088364124
Bq         3.9070530188    -2.7612044690     0.4352737678
Bq         3.7273009686    -2.8607980821     1.1044301865
Bq         3.9327318831    -2.7469768099     0.3396799937
Bq         3.7016221042    -2.8750257412     1.2000239606
Bq         3.9584107475    -2.7327491509     0.2440862197
Bq         3.8300164258    -2.8038874460     0.7220550901
Bq         3.8006465110    -2.7191324110     0.8313894038
Bq         3.8520042396    -2.6906770930     0.6402018556
Bq         3.7749676467    -2.7333600701     0.9269831779
Bq         3.8776831040    -2.6764494339     0.5446080815
Bq         3.7492887823    -2.7475877291     1.0225769520
Bq         3.9033619683    -2.6622217749     0.4490143074
Bq         3.7236099180    -2.7618153881     1.1181707261
Bq         3.9290408326    -2.6479941159     0.3534205333
Bq         3.6979310537    -2.7760430471     1.2137645002
Bq         3.9547196969    -2.6337664569     0.2578267592
Bq         3.8263253753    -2.7049047520     0.7357956297
Bq         3.7969554605    -2.6201497170     0.8451299433
Bq         3.8483131891    -2.5916943989     0.6539423951
Bq         3.7712765961    -2.6343773760     0.9407237174
Bq         3.8739920534    -2.5774667399     0.5583486211
Bq         3.7455977318    -2.6486050350     1.0363174915
Bq         3.8996709177    -2.5632390809     0.4627548470
Bq         3.7199188675    -2.6628326941     1.1319112656
Bq         3.9253497821    -2.5490114219     0.3671610729
Bq         3.6942400032    -2.6770603531     1.2275050397
Bq         3.9510286464    -2.5347837628     0.2715672988
Bq         3.8226343248    -2.6059220580     0.7495361692
Bq         3.7932644099    -2.5211670230     0.8588704829
Bq         3.8446221386    -2.4927117049     0.6676829347
Bq         3.7675855456    -2.5353946820     0.9544642570
Bq         3.8703010029    -2.4784840459     0.5720891606
Bq         3.7419066813    -2.5496223410     1.0500580311
Bq         3.8959798672    -2.4642563868     0.4764953865
Bq         3.7162278170    -2.5638500000     1.1456518052
Bq         3.9216587315    -2.4500287278     0.3809016124
Bq         3.6905489526    -2.5780776591     1.2412455793
Bq         3.9473375959    -2.4358010688     0.2853078383
Bq         3.8189432742    -2.5069393639     0.7632767088
Bq         3.7895733594    -2.4221843289     0.8726110225
Bq         3.8409310880    -2.3937290109     0.6814234743
Bq         3.7638944951    -2.4364119879     0.9682047966
Bq         3.8666099524    -2.3795013518     0.5858297002
Bq         3.7382156307    -2.4506396470     1.0637985706
Bq         3.8922888167    -2.3652736928     0.4902359261
Bq         3.7125367664    -2.4648673060     1.1593923447
Bq         3.9179676810    -2.3510460338     0.3946421520
Bq         3.6868579021    -2.4790949650     1.2549861188
Bq         3.9436465453    -2.3368183748     0.2990483779
Bq         3.8152522237    -2.4079566699     0.7770172484
Bq         3.7858823089    -2.3232016349     0.8863515620
Bq         3.8372400375    -2.2947463168     0.6951640138
Bq         3.7602034445    -2.3374292939     0.9819453361
Bq         3.8629189018    -2.2805186578     0.5995702397
Bq         3.7345245802    -2.3516569529     1.0775391102
Bq         3.8885977661    -2.2662909988     0.5039764656
Bq         3.7088457159    -2.3658846120     1.1731328843
Bq         3.9142766305    -2.2520633397     0.4083826915
Bq         3.6831668516    -2.3801122710     1.2687266584
Bq         3.9399554948    -2.2378356807     0.3127889174
Bq         3.8115611732    -2.3089739759     0.7907577879
Bq         3.7821912583    -2.2242189408     0.9000921016
Bq         3.8335489870    -2.1957636228     0.7089045534
Bq         3.7565123940    -2.2384465999     0.9956858757
Bq         3.8592278513    -2.1815359638     0.6133107793
Bq         3.7308335297    -2.2526742589     1.0912796498
Bq         3.8849067156    -2.1673083047     0.5177170052
Bq         3.7051546653    -2.2669019179     1.1868734239
Bq         3.9105855799    -2.1530806457     0.4221232311
Bq         3.6794758010    -2.2811295770     1.2824671980
Bq         3.9362644442    -2.1388529867     0.3265294570
Bq         3.8078701226    -2.2099912818     0.8044983275
Bq         3.7785002078    -2.1252362468     0.9138326411
Bq         3.8298579364    -2.0967809288     0.7226450929
Bq         3.7528213435    -2.1394639058     1.0094264152
Bq         3.8555368007    -2.0825532697     0.6270513188
Bq         3.7271424791    -2.1536915649     1.1050201893
Bq         3.8812156651    -2.0683256107     0.5314575448
Bq         3.7014636148    -2.1679192239     1.2006139634
Bq         3.9068945294    -2.0540979517     0.4358637707
Bq         3.6757847505    -2.1821468829     1.2962077375
Bq         3.9325733937    -2.0398702926     0.3402699966
Bq         3.8041790721    -2.1110085878     0.8182388670
Bq         3.7748091572    -2.0262535528     0.9275731807
Bq         3.8261668859    -1.9977982347     0.7363856325
Bq         3.7491302929    -2.0404812118     1.0231669548
Bq         3.8518457502    -1.9835705757     0.6407918584
Bq         3.7234514286    -2.0547088708     1.1187607289
Bq         3.8775246145    -1.9693429167     0.5451980843
Bq         3.6977725643    -2.0689365299     1.2143545030
Bq         3.9032034789    -1.9551152576     0.4496043102
Bq         3.6720937000    -2.0831641889     1.3099482771
Bq         3.9288823432    -1.9408875986     0.3540105361
Bq         3.8004880216    -2.0120258937     0.8319794066
Bq         3.7711181067    -1.9272708587     0.9413137203
Bq         3.8224758354    -1.8988155407     0.7501261721
Bq         3.7454392424    -1.9414985178     1.0369074943
Bq         3.8481546997    -1.8845878817     0.6545323980
Bq         3.7197603781    -1.9557261768     1.1325012684
Bq         3.8738335640    -1.8703602226     0.5589386239
Bq         3.6940815137    -1.9699538358     1.2280950425
Bq         3.8995124283    -1.8561325636     0.4633448498
Bq         3.6684026494    -1.9841814949     1.3236888166
Bq         3.9251912926    -1.8419049046     0.3677510757
Bq         3.7967969710    -1.9130431997     0.8457199462
Bq         3.7674270562    -1.8282881647     0.9550542598
Bq         3.8187847848    -1.7998328466     0.7638667116
Bq         3.7417481919    -1.8425158237     1.0506480339
Bq         3.8444636491    -1.7856051876     0.6682729375
Bq         3.7160693275    -1.8567434828     1.1462418080
Bq         3.8701425135    -1.7713775286     0.5726791634
Bq         3.6903904632    -1.8709711418     1.2418355821
Bq         3.8958213778    -1.7571498696     0.4770853893
Bq         3.6647115989    -1.8851988008     1.3374293562
Bq         3.9215002421    -1.7429222105     0.3814916152
Bq         3.7931059205    -1.8140605057     0.8594604857
Bq         3.7637360056    -1.7293054707     0.9687947994
Bq         3.8150937343    -1.7008501526     0.7776072512
Bq         3.7380571413    -1.7435331297     1.0643885735
Bq         3.8407725986    -1.6866224936     0.6820134771
Bq         3.7123782770    -1.7577607887     1.1599823476
Bq         3.8664514629    -1.6723948346     0.5864197030
Bq         3.6866994127    -1.7719884478     1.2555761217
Bq         3.8921303273    -1.6581671755     0.4908259289
Bq         3.6610205483    -1.7862161068     1.3511698957
Bq         3.9178091916    -1.6439395165     0.3952321548
Bq         3.7894148700    -1.7150778116     0.8732010253
Bq         3.7600449551    -1.6303227766     0.9825353389
Bq         3.8114026837    -1.6018674586     0.7913477907
Bq         3.7343660908    -1.6445504357     1.0781291130
Bq         3.8370815481    -1.5876397995     0.6957540166
Bq         3.7086872265    -1.6587780947     1.1737228871
Bq         3.8627604124    -1.5734121405     0.6001602425
Bq         3.6830083621    -1.6730057537     1.2693166612
Bq         3.8884392767    -1.5591844815     0.5045664685
Bq         3.6573294978    -1.6872334127     1.3649104353
Bq         3.9141181410    -1.5449568225     0.4089726944
Bq         3.7857238194    -1.6160951176     0.8869415648
Bq         3.7563539046    -1.5313400826     0.9962758785
Bq         3.8077116332    -1.5028847645     0.8050883303
Bq         3.7306750402    -1.5455677416     1.0918696526
Bq         3.8333904975    -1.4886571055     0.7094945562
Bq         3.7049961759    -1.5597954007     1.1874634267
Bq         3.8590693619    -1.4744294465     0.6139007821
Bq         3.6793173116    -1.5740230597     1.2830572008
Bq         3.8847482262    -1.4602017875     0.5183070080
Bq         3.6536384473    -1.5882507187     1.3786509749
Bq         3.9104270905    -1.4459741284     0.4227132339
Bq         3.7820327689    -1.5171124236     0.9006821044
Bq         3.7526628540    -1.4323573886     1.0100164180
Bq         3.8040205827    -1.4039020705     0.8188288699
Bq         3.7269839897    -1.4465850476     1.1056101921
Bq         3.8296994470    -1.3896744115     0.7232350958
Bq         3.7013051254    -1.4608127066     1.2012039662
Bq         3.8553783113    -1.3754467524     0.6276413217
Bq         3.6756262611    -1.4750403656     1.2967977403
Bq         3.8810571756    -1.3612190934     0.5320475476
Bq         3.6499473967    -1.4892680247     1.3923915144
Bq         3.9067360400    -1.3469914344     0.4364537735
Bq         3.7783417184    -1.4181297295     0.9144226439
Bq         3.7489718035    -1.3333746945     1.0237569576
Bq         3.8003295321    -1.3049193765     0.8325694094
Bq         3.7232929392    -1.3476023536     1.1193507317
Bq         3.8260083965    -1.2906917174     0.7369756353
Bq         3.6976140749    -1.3618300126     1.2149445058
Bq         3.8516872608    -1.2764640584     0.6413818612
Bq         3.6719352105    -1.3760576716     1.3105382799
Bq         3.8773661251    -1.2622363994     0.5457880871
Bq         3.6462563462    -1.3902853306     1.4061320540
Bq         3.9030449894    -1.2480087404     0.4501943130
Bq         3.7746506678    -1.3191470355     0.9281631835
Bq         3.7452807530    -1.2343920005     1.0374974972
Bq         3.7966384816    -1.2059366824     0.8463099490
Bq         3.7196018886    -1.2486196595     1.1330912713
Bq         3.8223173459    -1.1917090234     0.7507161749
Bq         3.6939230243    -1.2628473185     1.2286850454
Bq         3.8479962103    -1.1774813644     0.6551224008
Bq         3.6682441600    -1.2770749776     1.3242788194
Bq         3.8736750746    -1.1632537054     0.5595286267
Bq         3.6425652957    -1.2913026366     1.4198725935
Bq         3.8993539389    -1.1490260463     0.4639348526
Bq         3.7709596173    -1.2201643415     0.9419037231
Bq         3.7415897024    -1.1354093065     1.0512380367
Bq         3.7929474311    -1.1069539884     0.8600504885
Bq         3.7159108381    -1.1496369655     1.1468318108
Bq         3.8186262954    -1.0927263294     0.7644567144
Bq         3.6902319738    -1.1638646245     1.2424255849
Bq         3.8443051597    -1.0784986703     0.6688629403
Bq         3.6645531095    -1.1780922835     1.3380193590
Bq         3.8699840240    -1.0642710113     0.5732691662
Bq         3.6388742451    -1.1923199426     1.4336131331
Bq         3.8956628884    -1.0500433523     0.4776753922
Bq         3.7672685667    -1.1211816474     0.9556442626

1
2
3
4
5
6
7
8
9
10
11
12
13
14
15
16
17
18
19
20
21
22
23
24
25
26
27
28
29
30
31
32
33
34
35
36
37
38
39
40
41
42
43
44
45
46
47
48
49
50
51
52
53
54
55
56
57
58
59
60
61
62
63
64
65
66
67
68
69
70
71
72
73
74
75
76
77
78
79
80
81
82
83
84
85
86
87
88
89
90
91
92
93
94
95
96
97
98
99
100
101
102
103
104
105
106
107
108
109
110
111
112
113
114
115
116
117
118
119
120
121
122
123
124
125
126
127
128
129
130
131
132
133
134
135
136
137
138
139
140
141
142
143
144
145
146
147
148
149
150
151
152
153
154
155
156
157
158
159
160
161
162
163
164
165
166
167
168
169
170
171
172
173
174
175
176
177
178
179
180
181
182
183
184
185
186
187
188
189
190
191
192
193
194
195
196
197
198
199
200
201
202
203
204
205
206
207
208
209
210
211
212
213
214
215
216
217
218
219
220
221
222
223
224
225
226
227
228
229
230
231
232
233
234
235
236

