%nproc=8
%mem=1000MB
# rb3lyp/6-311+g** NMR geom=connectivity

Title

0 1
C    -4.0500558   -0.5771862    0.8136712
H    -5.0263804   -1.0082727    1.0024760
C    -3.9381552    0.6617804    0.2400876
H    -4.8252424    1.2338890   -0.0111295
C    -2.6768410    1.2433246    0.0057578
C    -1.4974121    0.5051527    0.2848253
C    -1.6508332   -0.7338728    0.9404026
H    -0.7713646   -1.2730967    1.2633753
C    -2.8898548   -1.2624035    1.1994307
H    -2.9683706   -2.2124563    1.7152676
C    -2.5773185    2.5963696   -0.4192930
H    -3.4870728    3.1412239   -0.6474055
C    -1.3741895    3.2147896   -0.4364030
H    -1.2997315    4.2742019   -0.6578144
C    -0.1719488    2.4994090   -0.1734588
C    -0.2043917    1.1018437    0.0192689
C     1.0513491    3.2042560   -0.0676222
H     1.0427344    4.2819499   -0.1896997
C     2.1942091    2.5487446    0.2579577
H     3.1168527    3.0912848    0.4334727
C     2.2216473    1.1336562    0.2934990
C     1.0486931    0.3945528    0.0302412
C     3.4483363    0.4614633    0.5573939
H     4.3095794    1.0606054    0.8334846
C     3.5427346   -0.8855926    0.4749463
H     4.4731467   -1.3939704    0.7038822
C     2.4490052   -1.6474447   -0.0196319
C     1.2150704   -1.0057258   -0.3013573
C     0.2531113   -1.7434440   -1.0216591
H    -0.6541356   -1.2535051   -1.3462847
C     0.4494193   -3.0628597   -1.3413779
H    -0.3083162   -3.5944309   -1.9054060
C     1.6251726   -3.7207967   -0.9552541
H     1.7670048   -4.7687404   -1.1927019
C     2.6109872   -3.0144177   -0.3183050
H     3.5525612   -3.4902813   -0.0646367
Bq        -1.3554443791     3.6508774741     0.4297194425
Bq        -1.2685886609     3.6213965636    -0.1632282450
Bq        -1.3699203322     3.6557909592     0.5285440571
Bq        -1.2541127078     3.6164830785    -0.2620528596
Bq        -1.3843962852     3.6607044443     0.6273686717
Bq        -1.2396367548     3.6115695935    -0.3608774742
Bq        -1.3120165200     3.6361370189     0.1332455988
Bq        -1.3257803391     3.7409297193     0.2272086086
Bq        -1.2968284330     3.7311027492     0.0295593794
Bq        -1.3402562921     3.7458432044     0.3260332232
Bq        -1.2823524800     3.7261892641    -0.0692652352
Bq        -1.3547322452     3.7507566895     0.4248578378
Bq        -1.2678765269     3.7212757790    -0.1680898497
Bq        -1.3692081982     3.7556701746     0.5236824523
Bq        -1.2534005739     3.7163622939    -0.2669144643
Bq        -1.3836841513     3.7605836597     0.6225070669
Bq        -1.2389246208     3.7114488088    -0.3657390789
Bq        -1.3113043860     3.7360162342     0.1283839940
Bq        -1.3250682051     3.8408089347     0.2223470038
Bq        -1.2961162991     3.8309819645     0.0246977747
Bq        -1.3395441582     3.8457224198     0.3211716184
Bq        -1.2816403460     3.8260684795    -0.0741268399
Bq        -1.3540201112     3.8506359049     0.4199962330
Bq        -1.2671643930     3.8211549944    -0.1729514545
Bq        -1.3684960643     3.8555493900     0.5188208476
Bq        -1.2526884399     3.8162415093    -0.2717760691
Bq        -1.3829720173     3.8604628750     0.6176454622
Bq        -1.2382124869     3.8113280242    -0.3706006837
Bq        -1.3105922521     3.8358954496     0.1235223892
Bq        -1.3243560712     3.9406881501     0.2174853991
Bq        -1.2954041651     3.9308611799     0.0198361699
Bq        -1.3388320242     3.9456016352     0.3163100136
Bq        -1.2809282121     3.9259476948    -0.0789884447
Bq        -1.3533079773     3.9505151202     0.4151346282
Bq        -1.2664522590     3.9210342098    -0.1778130593
Bq        -1.3677839303     3.9554286053     0.5139592428
Bq        -1.2519763060     3.9161207247    -0.2766376739
Bq        -1.3822598834     3.9603420904     0.6127838574
Bq        -1.2375003529     3.9112072396    -0.3754622885
Bq        -1.3098801182     3.9357746650     0.1186607845
Bq        -1.3236439373     4.0405673655     0.2126237943
Bq        -1.2946920312     4.0307403953     0.0149745651
Bq        -1.3381198903     4.0454808505     0.3114484089
Bq        -1.2802160781     4.0258269102    -0.0838500495
Bq        -1.3525958433     4.0503943356     0.4102730235
Bq        -1.2657401251     4.0209134251    -0.1826746640
Bq        -1.3670717964     4.0553078207     0.5090976380
Bq        -1.2512641720     4.0159999400    -0.2814992786
Bq        -1.3815477494     4.0602213058     0.6079222526
Bq        -1.2367882190     4.0110864550    -0.3803238932
Bq        -1.3091679842     4.0356538804     0.1137991797
Bq        -1.3229318033     4.1404465808     0.2077621895
Bq        -1.2939798972     4.1306196107     0.0101129604
Bq        -1.3374077564     4.1453600659     0.3065868041
Bq        -1.2795039442     4.1257061256    -0.0887116542
Bq        -1.3518837094     4.1502735510     0.4054114187
Bq        -1.2650279911     4.1207926405    -0.1875362688
Bq        -1.3663596625     4.1551870361     0.5042360333
Bq        -1.2505520381     4.1158791554    -0.2863608834
Bq        -1.3808356155     4.1601005212     0.6030606479
Bq        -1.2360760851     4.1109656703    -0.3851854980
Bq        -1.3084558503     4.1355330958     0.1089375749
Bq        -1.3222196694     4.2403257962     0.2029005848
Bq        -1.2932677633     4.2304988260     0.0052513556
Bq        -1.3366956224     4.2452392813     0.3017251993
Bq        -1.2787918102     4.2255853410    -0.0935732590
Bq        -1.3511715755     4.2501527664     0.4005498139
Bq        -1.2643158572     4.2206718559    -0.1923978736
Bq        -1.3656475285     4.2550662515     0.4993744285
Bq        -1.2498399042     4.2157583708    -0.2912224882
Bq        -1.3801234816     4.2599797365     0.5981990431
Bq        -1.2353639511     4.2108448857    -0.3900471027
Bq        -1.3077437163     4.2354123111     0.1040759702
Bq        -1.3215075354     4.3402050116     0.1980389800
Bq        -1.2925556293     4.3303780414     0.0003897508
Bq        -1.3359834885     4.3451184967     0.2968635946
Bq        -1.2780796763     4.3254645563    -0.0984348638
Bq        -1.3504594415     4.3500319818     0.3956882092
Bq        -1.2636037233     4.3205510713    -0.1972594783
Bq        -1.3649353946     4.3549454668     0.4945128237
Bq        -1.2491277702     4.3156375862    -0.2960840929
Bq        -1.3794113476     4.3598589519     0.5933374383
Bq        -1.2346518172     4.3107241011    -0.3949087075
Bq        -1.3070315824     4.3352915265     0.0992143654
Bq        -1.2581701086    -0.6537557573     0.4556126772
Bq        -1.2292182026    -0.6635827274     0.2579634481
Bq        -1.2726460617    -0.6488422722     0.5544372918
Bq        -1.2147422495    -0.6684962125     0.1591388335
Bq        -1.2871220147    -0.6439287871     0.6532619064
Bq        -1.2002662965    -0.6734096976     0.0603142189
Bq        -1.3015979678    -0.6390153020     0.7520865210
Bq        -1.1857903434    -0.6783231827    -0.0385103957
Bq        -1.3160739208    -0.6341018169     0.8509111356
Bq        -1.1713143904    -0.6832366678    -0.1373350103
Bq        -1.2436941556    -0.6586692423     0.3567880626
Bq        -1.2574579747    -0.5538765419     0.4507510725
Bq        -1.2285060686    -0.5637035121     0.2531018433
Bq        -1.2719339278    -0.5489630568     0.5495756870
Bq        -1.2140301156    -0.5686169971     0.1542772287
Bq        -1.2864098808    -0.5440495717     0.6484003016
Bq        -1.1995541625    -0.5735304822     0.0554526141
Bq        -1.3008858338    -0.5391360866     0.7472249162
Bq        -1.1850782095    -0.5784439673    -0.0433720005
Bq        -1.3153617869    -0.5342226016     0.8460495308
Bq        -1.1706022564    -0.5833574524    -0.1421966150
Bq        -1.2429820217    -0.5587900270     0.3519264579
Bq        -1.2567458408    -0.4539973265     0.4458894677
Bq        -1.2277939347    -0.4638242967     0.2482402385
Bq        -1.2712217938    -0.4490838414     0.5447140823
Bq        -1.2133179816    -0.4687377818     0.1494156239
Bq        -1.2856977469    -0.4441703563     0.6435386969
Bq        -1.1988420286    -0.4736512668     0.0505910094
Bq        -1.3001736999    -0.4392568713     0.7423633115
Bq        -1.1843660755    -0.4785647519    -0.0482336052
Bq        -1.3146496529    -0.4343433862     0.8411879260
Bq        -1.1698901225    -0.4834782370    -0.1470582198
Bq        -1.2422698877    -0.4589108116     0.3470648531
Bq        -1.2560337068    -0.3541181111     0.4410278629
Bq        -1.2270818007    -0.3639450813     0.2433786338
Bq        -1.2705096599    -0.3492046261     0.5398524775
Bq        -1.2126058477    -0.3688585664     0.1445540192
Bq        -1.2849856129    -0.3442911410     0.6386770921
Bq        -1.1981298946    -0.3737720515     0.0457294046
Bq        -1.2994615660    -0.3393776559     0.7375017067
Bq        -1.1836539416    -0.3786855365    -0.0530952100
Bq        -1.3139375190    -0.3344641708     0.8363263213
Bq        -1.1691779886    -0.3835990216    -0.1519198246
Bq        -1.2415577538    -0.3590315962     0.3422032483
Bq        -1.2553215729    -0.2542388958     0.4361662582
Bq        -1.2263696668    -0.2640658659     0.2385170290
Bq        -1.2697975259    -0.2493254107     0.5349908727
Bq        -1.2118937137    -0.2689793510     0.1396924144
Bq        -1.2842734790    -0.2444119256     0.6338154873
Bq        -1.1974177607    -0.2738928361     0.0408677998
Bq        -1.2987494320    -0.2394984405     0.7326401019
Bq        -1.1829418077    -0.2788063212    -0.0579568148
Bq        -1.3132253851    -0.2345849554     0.8314647165
Bq        -1.1684658546    -0.2837198063    -0.1567814293
Bq        -1.2408456198    -0.2591523808     0.3373416436
Bq        -1.2546094389    -0.1543596804     0.4313046534
Bq        -1.2256575329    -0.1641866505     0.2336554242
Bq        -1.2690853920    -0.1494461953     0.5301292680
Bq        -1.2111815798    -0.1691001356     0.1348308096
Bq        -1.2835613450    -0.1445327102     0.6289538826
Bq        -1.1967056268    -0.1740136207     0.0360061951
Bq        -1.2980372981    -0.1396192251     0.7277784972
Bq        -1.1822296737    -0.1789271058    -0.0628184195
Bq        -1.3125132511    -0.1347057400     0.8266031117
Bq        -1.1677537207    -0.1838405909    -0.1616430341
Bq        -1.2401334859    -0.1592731655     0.3324800388
Bq        -1.2538973050    -0.0544804650     0.4264430486
Bq        -1.2249453989    -0.0643074352     0.2287938195
Bq        -1.2683732580    -0.0495669799     0.5252676632
Bq        -1.2104694459    -0.0692209203     0.1299692049
Bq        -1.2828492111    -0.0446534948     0.6240922778
Bq        -1.1959934928    -0.0741344053     0.0311445903
Bq        -1.2973251641    -0.0397400098     0.7229168924
Bq        -1.1815175398    -0.0790478904    -0.0676800243
Bq        -1.3118011172    -0.0348265247     0.8217415070
Bq        -1.1670415867    -0.0839613755    -0.1665046389
Bq        -1.2394213520    -0.0593939501     0.3276184340
Bq        -1.2531851711     0.0453987504     0.4215814439
Bq        -1.2242332650     0.0355717802     0.2239322147
Bq        -1.2676611241     0.0503122355     0.5204060584
Bq        -1.2097573119     0.0306582951     0.1251076001
Bq        -1.2821370771     0.0552257205     0.6192306730
Bq        -1.1952813589     0.0257448100     0.0262829855
Bq        -1.2966130302     0.0601392056     0.7180552876
Bq        -1.1808054058     0.0208313250    -0.0725416291
Bq        -1.3110889832     0.0650526907     0.8168799022
Bq        -1.1663294528     0.0159178399    -0.1713662436
Bq        -1.2387092180     0.0404852653     0.3227568293
Bq        -1.2524730371     0.1452779658     0.4167198391
Bq        -1.2235211310     0.1354509956     0.2190706099
Bq        -1.2669489902     0.1501914508     0.5155444537
Bq        -1.2090451780     0.1305375105     0.1202459953
Bq        -1.2814249432     0.1551049359     0.6143690683
Bq        -1.1945692249     0.1256240254     0.0214213808
Bq        -1.2959008962     0.1600184210     0.7131936829
Bq        -1.1800932719     0.1207105403    -0.0774032338
Bq        -1.3103768493     0.1649319061     0.8120182974
Bq        -1.1656173188     0.1157970553    -0.1762278484
Bq        -1.2379970841     0.1403644807     0.3178952245
Bq        -1.2517609032     0.2451571811     0.4118582343
Bq        -1.2228089971     0.2353302110     0.2142090052
Bq        -1.2662368562     0.2500706662     0.5106828489
Bq        -1.2083330440     0.2304167259     0.1153843906
Bq        -1.2807128093     0.2549841513     0.6095074635
Bq        -1.1938570910     0.2255032408     0.0165597760
Bq        -1.2951887623     0.2598976364     0.7083320781
Bq        -1.1793811380     0.2205897557    -0.0822648386
Bq        -1.3096647154     0.2648111215     0.8071566927
Bq        -1.1649051849     0.2156762706    -0.1810894532
Bq        -1.2372849501     0.2402436960     0.3130336197
Bq        -1.2510487692     0.3450363965     0.4069966296
Bq        -1.2220968631     0.3352094263     0.2093474004
Bq        -1.2655247223     0.3499498816     0.5058212441
Bq        -1.2076209101     0.3302959413     0.1105227858
Bq        -1.2800006753     0.3548633667     0.6046458587
Bq        -1.1931449571     0.3253824562     0.0116981712

1
2
3
4
5
6
7
8
9
10
11
12
13
14
15
16
17
18
19
20
21
22
23
24
25
26
27
28
29
30
31
32
33
34
35
36
37
38
39
40
41
42
43
44
45
46
47
48
49
50
51
52
53
54
55
56
57
58
59
60
61
62
63
64
65
66
67
68
69
70
71
72
73
74
75
76
77
78
79
80
81
82
83
84
85
86
87
88
89
90
91
92
93
94
95
96
97
98
99
100
101
102
103
104
105
106
107
108
109
110
111
112
113
114
115
116
117
118
119
120
121
122
123
124
125
126
127
128
129
130
131
132
133
134
135
136
137
138
139
140
141
142
143
144
145
146
147
148
149
150
151
152
153
154
155
156
157
158
159
160
161
162
163
164
165
166
167
168
169
170
171
172
173
174
175
176
177
178
179
180
181
182
183
184
185
186
187
188
189
190
191
192
193
194
195
196
197
198
199
200
201
202
203
204
205
206
207
208
209
210
211
212
213
214
215
216
217
218
219
220
221
222
223
224
225
226
227
228
229
230
231
232
233
234
235
236

