%nproc=8
%mem=1000MB
# rb3lyp/6-311+g** NMR geom=connectivity

Title

0 1
C    -4.0500558   -0.5771862    0.8136712
H    -5.0263804   -1.0082727    1.0024760
C    -3.9381552    0.6617804    0.2400876
H    -4.8252424    1.2338890   -0.0111295
C    -2.6768410    1.2433246    0.0057578
C    -1.4974121    0.5051527    0.2848253
C    -1.6508332   -0.7338728    0.9404026
H    -0.7713646   -1.2730967    1.2633753
C    -2.8898548   -1.2624035    1.1994307
H    -2.9683706   -2.2124563    1.7152676
C    -2.5773185    2.5963696   -0.4192930
H    -3.4870728    3.1412239   -0.6474055
C    -1.3741895    3.2147896   -0.4364030
H    -1.2997315    4.2742019   -0.6578144
C    -0.1719488    2.4994090   -0.1734588
C    -0.2043917    1.1018437    0.0192689
C     1.0513491    3.2042560   -0.0676222
H     1.0427344    4.2819499   -0.1896997
C     2.1942091    2.5487446    0.2579577
H     3.1168527    3.0912848    0.4334727
C     2.2216473    1.1336562    0.2934990
C     1.0486931    0.3945528    0.0302412
C     3.4483363    0.4614633    0.5573939
H     4.3095794    1.0606054    0.8334846
C     3.5427346   -0.8855926    0.4749463
H     4.4731467   -1.3939704    0.7038822
C     2.4490052   -1.6474447   -0.0196319
C     1.2150704   -1.0057258   -0.3013573
C     0.2531113   -1.7434440   -1.0216591
H    -0.6541356   -1.2535051   -1.3462847
C     0.4494193   -3.0628597   -1.3413779
H    -0.3083162   -3.5944309   -1.9054060
C     1.6251726   -3.7207967   -0.9552541
H     1.7670048   -4.7687404   -1.1927019
C     2.6109872   -3.0144177   -0.3183050
H     3.5525612   -3.4902813   -0.0646367
Bq        -4.0816507813     1.5906383094     0.0164864316
Bq        -4.0841287503     1.8950173284     0.6468413098
Bq        -4.0812967857     1.5471555924    -0.0735642653
Bq        -4.0844827459     1.9385000454     0.7368920067
Bq        -4.0809427901     1.5036728754    -0.1636149621
Bq        -4.0827127680     1.7210864604     0.2866385223
Bq        -4.0828958313     1.8546205701     0.3332068381
Bq        -4.0821878402     1.7676551361     0.1531054444
Bq        -4.0832498269     1.8981032871     0.4232575350
Bq        -4.0818338446     1.7241724191     0.0630547475
Bq        -4.0836038225     1.9415860041     0.5133082319
Bq        -4.0814798490     1.6806897021    -0.0269959494
Bq        -4.0839578180     1.9850687211     0.6033589288
Bq        -4.0811258534     1.6372069851    -0.1170466463
Bq        -4.0843118136     2.0285514381     0.6934096257
Bq        -4.0807718579     1.5937242681    -0.2070973432
Bq        -4.0825418357     1.8111378531     0.2431561412
Bq        -4.0827248990     1.9446719628     0.2897244571
Bq        -4.0820169079     1.8577065288     0.1096230633
Bq        -4.0830788946     1.9881546798     0.3797751540
Bq        -4.0816629123     1.8142238118     0.0195723664
Bq        -4.0834328902     2.0316373968     0.4698258509
Bq        -4.0813089167     1.7707410947    -0.0704783304
Bq        -4.0837868858     2.0751201138     0.5598765477
Bq        -4.0809549212     1.7272583777    -0.1605290273
Bq        -4.0841408813     2.1186028308     0.6499272446
Bq        -4.0806009256     1.6837756607    -0.2505797242
Bq        -4.0823709035     1.9011892458     0.1996737602
Bq        -4.0825539668     2.0347233554     0.2462420761
Bq        -4.0818459756     1.9477579214     0.0661406823
Bq        -4.0829079623     2.0782060724     0.3362927729
Bq        -4.0814919800     1.9042752044    -0.0239100146
Bq        -4.0832619579     2.1216887894     0.4263434698
Bq        -4.0811379845     1.8607924874    -0.1139607115
Bq        -4.0836159535     2.1651715065     0.5163941667
Bq        -4.0807839889     1.8173097704    -0.2040114083
Bq        -4.0839699490     2.2086542235     0.6064448636
Bq        -4.0804299933     1.7738270534    -0.2940621052
Bq        -4.0821999712     1.9912406384     0.1561913792
Bq        -4.0823830345     2.1247747481     0.2027596950
Bq        -4.0816750433     2.0378093141     0.0226583013
Bq        -4.0827370301     2.1682574651     0.2928103919
Bq        -4.0813210478     1.9943265971    -0.0673923956
Bq        -4.0830910256     2.2117401821     0.3828610888
Bq        -4.0809670522     1.9508438801    -0.1574430925
Bq        -4.0834450212     2.2552228991     0.4729117857
Bq        -4.0806130566     1.9073611631    -0.2474937894
Bq        -4.0837990168     2.2987056161     0.5629624826
Bq        -4.0802590610     1.8638784461    -0.3375444863
Bq        -4.0820290389     2.0812920311     0.1127089981
Bq        -4.0822121022     2.2148261408     0.1592773140
Bq        -4.0815041111     2.1278607068    -0.0208240798
Bq        -4.0825660978     2.2583088578     0.2493280109
Bq        -4.0811501155     2.0843779898    -0.1108747766
Bq        -4.0829200934     2.3017915748     0.3393787078
Bq        -4.0807961199     2.0408952728    -0.2009254735
Bq        -4.0832740889     2.3452742918     0.4294294046
Bq        -4.0804421243     1.9974125558    -0.2909761704
Bq        -4.0836280845     2.3887570088     0.5194801015
Bq        -4.0800881288     1.9539298388    -0.3810268673
Bq        -4.0818581066     2.1713434238     0.0692266171
Bq        -4.0820411699     2.3048775334     0.1157949330
Bq        -4.0813331788     2.2179120994    -0.0643064608
Bq        -4.0823951655     2.3483602505     0.2058456298
Bq        -4.0809791832     2.1744293824    -0.1543571577
Bq        -4.0827491611     2.3918429675     0.2958963267
Bq        -4.0806251876     2.1309466654    -0.2444078546
Bq        -4.0831031567     2.4353256845     0.3859470236
Bq        -4.0802711921     2.0874639484    -0.3344585514
Bq        -4.0834571522     2.4788084015     0.4759977205
Bq        -4.0799171965     2.0439812314    -0.4245092483
Bq        -4.0816871744     2.2613948164     0.0257442361
Bq        -4.0818702377     2.3949289261     0.0723125519
Bq        -4.0811622465     2.3079634921    -0.1077888418
Bq        -4.0822242332     2.4384116431     0.1623632488
Bq        -4.0808082509     2.2644807751    -0.1978395387
Bq        -4.0825782288     2.4818943601     0.2524139457
Bq        -4.0804542554     2.2209980581    -0.2878902356
Bq        -4.0829322244     2.5253770771     0.3424646426
Bq        -4.0801002598     2.1775153411    -0.3779409325
Bq        -4.0832862200     2.5688597941     0.4325153395
Bq        -4.0797462642     2.1340326241    -0.4679916294
Bq        -4.0815162421     2.3514462091    -0.0177381449
Bq        -4.0816993054     2.4849803188     0.0288301709
Bq        -4.0809913142     2.3980148848    -0.1512712229
Bq        -4.0820533010     2.5284630358     0.1188808678
Bq        -4.0806373187     2.3545321678    -0.2413219197
Bq        -4.0824072965     2.5719457528     0.2089315647
Bq        -4.0802833231     2.3110494508    -0.3313726166
Bq        -4.0827612921     2.6154284698     0.2989822615
Bq        -4.0799293275     2.2675667338    -0.4214233135
Bq        -4.0831152877     2.6589111868     0.3890329584
Bq        -4.0795753319     2.2240840168    -0.5114740104
Bq        -4.0813453098     2.4414976018    -0.0612205260
Bq        -3.9902466918    -2.0175893147     2.2033423265
Bq        -3.9895387006    -2.1045547487     2.0232409327
Bq        -3.9906006873    -1.9741065977     2.2933930233
Bq        -3.9891847050    -2.1480374658     1.9331902358
Bq        -3.9909546829    -1.9306238807     2.3834437202
Bq        -3.9888307095    -2.1915201828     1.8431395389
Bq        -3.9913086785    -1.8871411637     2.4734944171
Bq        -3.9884767139    -2.2350028998     1.7530888421
Bq        -3.9916626741    -1.8436584467     2.5635451140
Bq        -3.9881227183    -2.2784856168     1.6630381452
Bq        -3.9898926962    -2.0610720317     2.1132916296
Bq        -3.9900757595    -1.9275379221     2.1598599454
Bq        -3.9893677683    -2.0145033561     1.9797585517
Bq        -3.9904297551    -1.8840552051     2.2499106423
Bq        -3.9890137728    -2.0579860731     1.8897078548
Bq        -3.9907837506    -1.8405724881     2.3399613392
Bq        -3.9886597772    -2.1014687901     1.7996571579
Bq        -3.9911377462    -1.7970897711     2.4300120361
Bq        -3.9883057816    -2.1449515071     1.7096064610
Bq        -3.9914917418    -1.7536070540     2.5200627330
Bq        -3.9879517860    -2.1884342241     1.6195557641
Bq        -3.9897217639    -1.9710206391     2.0698092486
Bq        -3.9899048272    -1.8374865294     2.1163775644
Bq        -3.9891968361    -1.9244519634     1.9362761706
Bq        -3.9902588228    -1.7940038124     2.2064282613
Bq        -3.9888428405    -1.9679346804     1.8462254738
Bq        -3.9906128184    -1.7505210954     2.2964789582
Bq        -3.9884888449    -2.0114173974     1.7561747769
Bq        -3.9909668139    -1.7070383784     2.3865296551
Bq        -3.9881348493    -2.0549001144     1.6661240800
Bq        -3.9913208095    -1.6635556614     2.4765803519
Bq        -3.9877808538    -2.0983828314     1.5760733831
Bq        -3.9895508316    -1.8809692464     2.0263268675
Bq        -3.9897338949    -1.7474351367     2.0728951834
Bq        -3.9890259038    -1.8344005707     1.8927937896
Bq        -3.9900878905    -1.7039524197     2.1629458803
Bq        -3.9886719082    -1.8778832877     1.8027430927
Bq        -3.9904418861    -1.6604697027     2.2529965771
Bq        -3.9883179126    -1.9213660047     1.7126923958
Bq        -3.9907958817    -1.6169869857     2.3430472740
Bq        -3.9879639171    -1.9648487217     1.6226416990
Bq        -3.9911498772    -1.5735042687     2.4330979709
Bq        -3.9876099215    -2.0083314388     1.5325910021
Bq        -3.9893798994    -1.7909178537     1.9828444865
Bq        -3.9895629627    -1.6573837441     2.0294128023
Bq        -3.9888549715    -1.7443491781     1.8493114086
Bq        -3.9899169582    -1.6139010270     2.1194634992
Bq        -3.9885009759    -1.7878318951     1.7592607117
Bq        -3.9902709538    -1.5704183100     2.2095141961
Bq        -3.9881469804    -1.8313146121     1.6692100148
Bq        -3.9906249494    -1.5269355930     2.2995648930
Bq        -3.9877929848    -1.8747973291     1.5791593179
Bq        -3.9909789450    -1.4834528760     2.3896155899
Bq        -3.9874389892    -1.9182800461     1.4891086210
Bq        -3.9892089671    -1.7008664611     1.9393621055
Bq        -3.9893920304    -1.5673323514     1.9859304213
Bq        -3.9886840392    -1.6542977854     1.8058290275
Bq        -3.9897460260    -1.5238496344     2.0759811182
Bq        -3.9883300437    -1.6977805024     1.7157783307
Bq        -3.9901000215    -1.4803669174     2.1660318151
Bq        -3.9879760481    -1.7412632194     1.6257276338
Bq        -3.9904540171    -1.4368842004     2.2560825120
Bq        -3.9876220525    -1.7847459364     1.5356769369
Bq        -3.9908080127    -1.3934014834     2.3461332088
Bq        -3.9872680569    -1.8282286534     1.4456262400
Bq        -3.9890380348    -1.6108150684     1.8958797244
Bq        -3.9892210981    -1.4772809587     1.9424480403
Bq        -3.9885131070    -1.5642463927     1.7623466465
Bq        -3.9895750937    -1.4337982417     2.0324987372
Bq        -3.9881591114    -1.6077291097     1.6722959496
Bq        -3.9899290893    -1.3903155247     2.1225494340
Bq        -3.9878051158    -1.6512118267     1.5822452527
Bq        -3.9902830848    -1.3468328077     2.2126001309
Bq        -3.9874511202    -1.6946945437     1.4921945559
Bq        -3.9906370804    -1.3033500907     2.3026508278
Bq        -3.9870971247    -1.7381772607     1.4021438590
Bq        -3.9888671025    -1.5207636757     1.8523973434
Bq        -3.9890501658    -1.3872295660     1.8989656592
Bq        -3.9883421747    -1.4741950001     1.7188642655
Bq        -3.9894041614    -1.3437468490     1.9890163561
Bq        -3.9879881791    -1.5176777171     1.6288135686
Bq        -3.9897581570    -1.3002641320     2.0790670530
Bq        -3.9876341835    -1.5611604341     1.5387628717
Bq        -3.9901121526    -1.2567814150     2.1691177499
Bq        -3.9872801880    -1.6046431511     1.4487121748
Bq        -3.9904661481    -1.2132986980     2.2591684468
Bq        -3.9869261924    -1.6481258681     1.3586614779
Bq        -3.9886961703    -1.4307122830     1.8089149624
Bq        -3.9888792336    -1.2971781734     1.8554832782
Bq        -3.9881712424    -1.3841436074     1.6753818844
Bq        -3.9892332291    -1.2536954564     1.9455339751
Bq        -3.9878172468    -1.4276263244     1.5853311876
Bq        -3.9895872247    -1.2102127394     2.0355846720
Bq        -3.9874632513    -1.4711090414     1.4952804907
Bq        -3.9899412203    -1.1667300224     2.1256353689
Bq        -3.9871092557    -1.5145917584     1.4052297938
Bq        -3.9902952159    -1.1232473054     2.2156860657
Bq        -3.9867552601    -1.5580744754     1.3151790969
Bq        -3.9885252380    -1.3406608904     1.7654325813
Bq        -3.9887083013    -1.2071267807     1.8120008972
Bq        -3.9880003101    -1.2940922147     1.6318995034
Bq        -3.9890622969    -1.1636440637     1.9020515941
Bq        -3.9876463146    -1.3375749317     1.5418488065
Bq        -3.9894162924    -1.1201613467     1.9921022909
Bq        -3.9872923190    -1.3810576487     1.4517981096
Bq        -3.9897702880    -1.0766786297     2.0821529878

1
2
3
4
5
6
7
8
9
10
11
12
13
14
15
16
17
18
19
20
21
22
23
24
25
26
27
28
29
30
31
32
33
34
35
36
37
38
39
40
41
42
43
44
45
46
47
48
49
50
51
52
53
54
55
56
57
58
59
60
61
62
63
64
65
66
67
68
69
70
71
72
73
74
75
76
77
78
79
80
81
82
83
84
85
86
87
88
89
90
91
92
93
94
95
96
97
98
99
100
101
102
103
104
105
106
107
108
109
110
111
112
113
114
115
116
117
118
119
120
121
122
123
124
125
126
127
128
129
130
131
132
133
134
135
136
137
138
139
140
141
142
143
144
145
146
147
148
149
150
151
152
153
154
155
156
157
158
159
160
161
162
163
164
165
166
167
168
169
170
171
172
173
174
175
176
177
178
179
180
181
182
183
184
185
186
187
188
189
190
191
192
193
194
195
196
197
198
199
200
201
202
203
204
205
206
207
208
209
210
211
212
213
214
215
216
217
218
219
220
221
222
223
224
225
226
227
228
229
230
231
232
233
234
235
236

