%nproc=8
%mem=1000MB
# rb3lyp/6-311+g** NMR geom=connectivity

Title

0 1
C    -4.0500558   -0.5771862    0.8136712
H    -5.0263804   -1.0082727    1.0024760
C    -3.9381552    0.6617804    0.2400876
H    -4.8252424    1.2338890   -0.0111295
C    -2.6768410    1.2433246    0.0057578
C    -1.4974121    0.5051527    0.2848253
C    -1.6508332   -0.7338728    0.9404026
H    -0.7713646   -1.2730967    1.2633753
C    -2.8898548   -1.2624035    1.1994307
H    -2.9683706   -2.2124563    1.7152676
C    -2.5773185    2.5963696   -0.4192930
H    -3.4870728    3.1412239   -0.6474055
C    -1.3741895    3.2147896   -0.4364030
H    -1.2997315    4.2742019   -0.6578144
C    -0.1719488    2.4994090   -0.1734588
C    -0.2043917    1.1018437    0.0192689
C     1.0513491    3.2042560   -0.0676222
H     1.0427344    4.2819499   -0.1896997
C     2.1942091    2.5487446    0.2579577
H     3.1168527    3.0912848    0.4334727
C     2.2216473    1.1336562    0.2934990
C     1.0486931    0.3945528    0.0302412
C     3.4483363    0.4614633    0.5573939
H     4.3095794    1.0606054    0.8334846
C     3.5427346   -0.8855926    0.4749463
H     4.4731467   -1.3939704    0.7038822
C     2.4490052   -1.6474447   -0.0196319
C     1.2150704   -1.0057258   -0.3013573
C     0.2531113   -1.7434440   -1.0216591
H    -0.6541356   -1.2535051   -1.3462847
C     0.4494193   -3.0628597   -1.3413779
H    -0.3083162   -3.5944309   -1.9054060
C     1.6251726   -3.7207967   -0.9552541
H     1.7670048   -4.7687404   -1.1927019
C     2.6109872   -3.0144177   -0.3183050
H     3.5525612   -3.4902813   -0.0646367
Bq        -3.5414374236     0.8920073182     0.4541726549
Bq        -3.5529633676     0.9656552703     0.7447636592
Bq        -3.5375954423     0.8674580008     0.3573089868
Bq        -3.5568053489     0.9902045877     0.8416273273
Bq        -3.5337534610     0.8429086834     0.2604453187
Bq        -3.5606473303     1.0147539051     0.9384909954
Bq        -3.5299114796     0.8183593660     0.1635816506
Bq        -3.5644893116     1.0393032224     1.0353546635
Bq        -3.5260694983     0.7938100487     0.0667179826
Bq        -3.5452794049     0.9165566355     0.5510363230
Bq        -3.5481484320     1.0380457849     0.6233699617
Bq        -3.5404644694     0.9889471501     0.4296426255
Bq        -3.5519904134     1.0625951022     0.7202336298
Bq        -3.5366224881     0.9643978327     0.3327789574
Bq        -3.5558323947     1.0871444196     0.8170972978
Bq        -3.5327805067     0.9398485154     0.2359152893
Bq        -3.5596743760     1.1116937370     0.9139609659
Bq        -3.5289385254     0.9152991980     0.1390516212
Bq        -3.5635163574     1.1362430544     1.0108246340
Bq        -3.5250965441     0.8907498806     0.0421879531
Bq        -3.5443064507     1.0134964675     0.5265062936
Bq        -3.5471754778     1.1349856168     0.5988399322
Bq        -3.5394915152     1.0858869821     0.4051125961
Bq        -3.5510174591     1.1595349342     0.6957036003
Bq        -3.5356495338     1.0613376647     0.3082489280
Bq        -3.5548594405     1.1840842516     0.7925672684
Bq        -3.5318075525     1.0367883473     0.2113852599
Bq        -3.5587014218     1.2086335689     0.8894309365
Bq        -3.5279655712     1.0122390299     0.1145215918
Bq        -3.5625434031     1.2331828863     0.9862946046
Bq        -3.5241235898     0.9876897125     0.0176579237
Bq        -3.5433334965     1.1104362994     0.5019762641
Bq        -3.5462025236     1.2319254487     0.5743099028
Bq        -3.5385185609     1.1828268140     0.3805825666
Bq        -3.5500445049     1.2564747661     0.6711735709
Bq        -3.5346765796     1.1582774966     0.2837188985
Bq        -3.5538864863     1.2810240835     0.7680372390
Bq        -3.5308345983     1.1337281792     0.1868552305
Bq        -3.5577284676     1.3055734009     0.8649009071
Bq        -3.5269926169     1.1091788619     0.0899915624
Bq        -3.5615704489     1.3301227182     0.9617645752
Bq        -3.5231506356     1.0846295445    -0.0068721057
Bq        -3.5423605423     1.2073761314     0.4774462347
Bq        -3.5452295694     1.3288652807     0.5497798734
Bq        -3.5375456067     1.2797666459     0.3560525372
Bq        -3.5490715507     1.3534145981     0.6466435415
Bq        -3.5337036254     1.2552173286     0.2591888691
Bq        -3.5529135320     1.3779639154     0.7435072096
Bq        -3.5298616441     1.2306680112     0.1623252010
Bq        -3.5567555134     1.4025132328     0.8403708777
Bq        -3.5260196627     1.2061186938     0.0654615329
Bq        -3.5605974947     1.4270625502     0.9372345457
Bq        -3.5221776814     1.1815693764    -0.0314021352
Bq        -3.5413875880     1.3043159633     0.4529162053
Bq        -3.5442566151     1.4258051126     0.5252498440
Bq        -3.5365726525     1.3767064779     0.3315225078
Bq        -3.5480985965     1.4503544300     0.6221135120
Bq        -3.5327306712     1.3521571605     0.2346588397
Bq        -3.5519405778     1.4749037474     0.7189771801
Bq        -3.5288886898     1.3276078431     0.1377951716
Bq        -3.5557825591     1.4994530647     0.8158408482
Bq        -3.5250467085     1.3030585257     0.0409315035
Bq        -3.5596245405     1.5240023821     0.9127045163
Bq        -3.5212047272     1.2785092084    -0.0559321646
Bq        -3.5404146338     1.4012557952     0.4283861759
Bq        -3.5432836609     1.5227449446     0.5007198145
Bq        -3.5355996983     1.4736463098     0.3069924784
Bq        -3.5471256423     1.5472942619     0.5975834826
Bq        -3.5317577169     1.4490969924     0.2101288103
Bq        -3.5509676236     1.5718435793     0.6944471507
Bq        -3.5279157356     1.4245476751     0.1132651422
Bq        -3.5548096049     1.5963928967     0.7913108188
Bq        -3.5240737543     1.3999983577     0.0164014741
Bq        -3.5586515862     1.6209422141     0.8881744869
Bq        -3.5202317729     1.3754490403    -0.0804621940
Bq        -3.5394416796     1.4981956272     0.4038561464
Bq        -3.5423107067     1.6196847765     0.4761897851
Bq        -3.5346267440     1.5705861417     0.2824624489
Bq        -3.5461526880     1.6442340939     0.5730534532
Bq        -3.5307847627     1.5460368244     0.1855987808
Bq        -3.5499946694     1.6687834113     0.6699171213
Bq        -3.5269427814     1.5214875070     0.0887351127
Bq        -3.5538366507     1.6933327286     0.7667807894
Bq        -3.5231008001     1.4969381896    -0.0081285553
Bq        -3.5576786320     1.7178820460     0.8636444575
Bq        -3.5192588187     1.4723888722    -0.1049922234
Bq        -3.5384687254     1.5951354591     0.3793261170
Bq        -3.5413377525     1.7166246084     0.4516597557
Bq        -3.5336537898     1.6675259737     0.2579324195
Bq        -3.5451797338     1.7411739258     0.5485234238
Bq        -3.5298118085     1.6429766563     0.1610687514
Bq        -3.5490217151     1.7657232432     0.6453870919
Bq        -3.5259698272     1.6184273389     0.0642050833
Bq        -3.5528636965     1.7902725606     0.7422507599
Bq        -3.5221278458     1.5938780216    -0.0326585848
Bq        -3.5567056778     1.8148218779     0.8391144280
Bq        -3.5182858645     1.5693287042    -0.1295222529
Bq        -3.5374957711     1.6920752911     0.3547960876
Bq        -3.5403647982     1.8135644404     0.4271297262
Bq        -3.5326808356     1.7644658056     0.2334023901
Bq        -3.5442067796     1.8381137578     0.5239933943
Bq        -3.5288388543     1.7399164882     0.1365387220
Bq        -3.5480487609     1.8626630751     0.6208570624
Bq        -3.5249968729     1.7153671709     0.0396750539
Bq        -3.5518907422     1.8872123925     0.7177207305
Bq        -3.5211548916     1.6908178535    -0.0571886142
Bq        -3.5557327236     1.9117617099     0.8145843986
Bq        -3.5173129103     1.6662685361    -0.1540522823
Bq        -3.5365228169     1.7890151230     0.3302660582
Bq        -3.5393918440     1.9105042723     0.4025996968
Bq        -3.5317078814     1.8614056376     0.2088723606
Bq        -3.5432338254     1.9350535897     0.4994633649
Bq        -3.5278659000     1.8368563202     0.1120086926
Bq        -3.5470758067     1.9596029071     0.5963270330
Bq        -3.5240239187     1.8123070028     0.0151450245
Bq        -3.5509177880     1.9841522244     0.6931907011
Bq        -3.5201819374     1.7877576854    -0.0817186436
Bq        -3.5547597693     2.0087015418     0.7900543692
Bq        -3.5163399560     1.7632083681    -0.1785823117
Bq        -3.5355498627     1.8859549549     0.3057360287
Bq        -3.5384188898     2.0074441043     0.3780696674
Bq        -3.5307349271     1.9583454695     0.1843423312
Bq        -3.5422608711     2.0319934216     0.4749333355
Bq        -3.5268929458     1.9337961521     0.0874786631
Bq        -3.5461028525     2.0565427390     0.5717970036
Bq        -3.5230509645     1.9092468348    -0.0093850050
Bq        -3.5499448338     2.0810920564     0.6686606717
Bq        -3.5192089832     1.8846975174    -0.1062486731
Bq        -3.5537868151     2.1056413738     0.7655243398
Bq        -3.5153670018     1.8601482000    -0.2031123411
Bq        -3.5345769085     1.9828947869     0.2812059993
Bq        -3.5374459356     2.1043839362     0.3535396380
Bq        -3.5297619729     2.0552853014     0.1598123018
Bq        -3.5412879169     2.1289332536     0.4504033061
Bq        -3.5259199916     2.0307359841     0.0629486337
Bq        -3.5451298982     2.1534825709     0.5472669741
Bq        -3.5220780103     2.0061866667    -0.0339150344
Bq        -3.5489718796     2.1780318883     0.6441306422
Bq        -3.5182360289     1.9816373493    -0.1307787025
Bq        -3.5528138609     2.2025812057     0.7409943103
Bq        -3.5143940476     1.9570880319    -0.2276423706
Bq        -3.5336039542     2.0798346188     0.2566759699
Bq        -3.5364729814     2.2013237681     0.3290096085
Bq        -3.5287890187     2.1522251334     0.1352822724
Bq        -3.5403149627     2.2258730855     0.4258732766
Bq        -3.5249470374     2.1276758160     0.0384186043
Bq        -3.5441569440     2.2504224029     0.5227369447
Bq        -3.5211050560     2.1031264986    -0.0584450638
Bq        -3.5479989253     2.2749717203     0.6196006128
Bq        -3.5172630747     2.0785771813    -0.1553087319
Bq        -3.5518409067     2.2995210376     0.7164642809
Bq        -3.5134210934     2.0540278639    -0.2521724000
Bq        -3.5326310000     2.1767744508     0.2321459405
Bq        -3.5355000271     2.2982636001     0.3044795791
Bq        -3.5278160645     2.2491649653     0.1107522429
Bq        -3.5393420085     2.3228129174     0.4013432472
Bq        -3.5239740831     2.2246156479     0.0138885748
Bq        -3.5431839898     2.3473622348     0.4982069153
Bq        -3.5201321018     2.2000663306    -0.0829750932
Bq        -3.5470259711     2.3719115522     0.5950705834
Bq        -3.5162901205     2.1755170132    -0.1798387613
Bq        -3.5508679524     2.3964608696     0.6919342515
Bq        -3.5124481392     2.1509676958    -0.2767024294
Bq        -3.5316580458     2.2737142827     0.2076159110
Bq        -3.5345270729     2.3952034320     0.2799495497
Bq        -3.5268431102     2.3461047973     0.0862222135
Bq        -3.5383690542     2.4197527494     0.3768132178
Bq        -3.5230011289     2.3215554799    -0.0106414546
Bq        -3.5422110356     2.4443020668     0.4736768859
Bq        -3.5191591476     2.2970061625    -0.1075051227
Bq        -3.5460530169     2.4688513841     0.5705405540
Bq        -3.5153171663     2.2724568451    -0.2043687908
Bq        -3.5498949982     2.4934007015     0.6674042220
Bq        -3.5114751849     2.2479075278    -0.3012324589
Bq        -3.5306850916     2.3706541146     0.1830858816
Bq        -3.5335541187     2.4921432640     0.2554195203
Bq        -3.5258701560     2.4430446292     0.0616921841
Bq        -3.5373961000     2.5166925813     0.3522831883
Bq        -3.5220281747     2.4184953118    -0.0351714840
Bq        -3.5412380813     2.5412418987     0.4491468564
Bq        -3.5181861934     2.3939459944    -0.1320351521
Bq        -3.5450800627     2.5657912161     0.5460105245
Bq        -3.5143442120     2.3693966771    -0.2288988202
Bq        -3.5489220440     2.5903405335     0.6428741926
Bq        -3.5105022307     2.3448473597    -0.3257624883
Bq        -3.5297121373     2.4675939466     0.1585558522
Bq        -3.5325811645     2.5890830959     0.2308894908
Bq        -3.5248972018     2.5399844611     0.0371621547
Bq        -3.5364231458     2.6136324133     0.3277531589
Bq        -3.5210552205     2.5154351438    -0.0597015134
Bq        -3.5402651271     2.6381817306     0.4246168270
Bq        -3.5172132391     2.4908858264    -0.1565651815
Bq        -3.5441071084     2.6627310480     0.5214804951
Bq        -3.5133712578     2.4663365090    -0.2534288496
Bq        -3.5479490898     2.6872803654     0.6183441632
Bq        -3.5095292765     2.4417871916    -0.3502925177
Bq        -3.5287391831     2.5645337785     0.1340258227
Bq        -3.5316082102     2.6860229278     0.2063594614
Bq        -3.5239242476     2.6369242931     0.0126321252
Bq        -3.5354501916     2.7105722452     0.3032231295

1
2
3
4
5
6
7
8
9
10
11
12
13
14
15
16
17
18
19
20
21
22
23
24
25
26
27
28
29
30
31
32
33
34
35
36
37
38
39
40
41
42
43
44
45
46
47
48
49
50
51
52
53
54
55
56
57
58
59
60
61
62
63
64
65
66
67
68
69
70
71
72
73
74
75
76
77
78
79
80
81
82
83
84
85
86
87
88
89
90
91
92
93
94
95
96
97
98
99
100
101
102
103
104
105
106
107
108
109
110
111
112
113
114
115
116
117
118
119
120
121
122
123
124
125
126
127
128
129
130
131
132
133
134
135
136
137
138
139
140
141
142
143
144
145
146
147
148
149
150
151
152
153
154
155
156
157
158
159
160
161
162
163
164
165
166
167
168
169
170
171
172
173
174
175
176
177
178
179
180
181
182
183
184
185
186
187
188
189
190
191
192
193
194
195
196
197
198
199
200
201
202
203
204
205
206
207
208
209
210
211
212
213
214
215
216
217
218
219
220
221
222
223
224
225
226
227
228
229
230
231
232
233
234
235
236

