%nproc=8
%mem=1000MB
# rb3lyp/6-311+g** NMR geom=connectivity

Title

0 1
C    -4.0500558   -0.5771862    0.8136712
H    -5.0263804   -1.0082727    1.0024760
C    -3.9381552    0.6617804    0.2400876
H    -4.8252424    1.2338890   -0.0111295
C    -2.6768410    1.2433246    0.0057578
C    -1.4974121    0.5051527    0.2848253
C    -1.6508332   -0.7338728    0.9404026
H    -0.7713646   -1.2730967    1.2633753
C    -2.8898548   -1.2624035    1.1994307
H    -2.9683706   -2.2124563    1.7152676
C    -2.5773185    2.5963696   -0.4192930
H    -3.4870728    3.1412239   -0.6474055
C    -1.3741895    3.2147896   -0.4364030
H    -1.2997315    4.2742019   -0.6578144
C    -0.1719488    2.4994090   -0.1734588
C    -0.2043917    1.1018437    0.0192689
C     1.0513491    3.2042560   -0.0676222
H     1.0427344    4.2819499   -0.1896997
C     2.1942091    2.5487446    0.2579577
H     3.1168527    3.0912848    0.4334727
C     2.2216473    1.1336562    0.2934990
C     1.0486931    0.3945528    0.0302412
C     3.4483363    0.4614633    0.5573939
H     4.3095794    1.0606054    0.8334846
C     3.5427346   -0.8855926    0.4749463
H     4.4731467   -1.3939704    0.7038822
C     2.4490052   -1.6474447   -0.0196319
C     1.2150704   -1.0057258   -0.3013573
C     0.2531113   -1.7434440   -1.0216591
H    -0.6541356   -1.2535051   -1.3462847
C     0.4494193   -3.0628597   -1.3413779
H    -0.3083162   -3.5944309   -1.9054060
C     1.6251726   -3.7207967   -0.9552541
H     1.7670048   -4.7687404   -1.1927019
C     2.6109872   -3.0144177   -0.3183050
H     3.5525612   -3.4902813   -0.0646367
Bq        -0.1844751641    -3.1139028580    -0.4820639820
Bq         0.2141424738    -2.8477463469    -1.3597112291
Bq         0.0148336549    -2.9808246024    -0.9208876055
Bq        -0.0360345823    -2.9110472708    -0.8088896304
Bq         0.0436889453    -2.8578159686    -0.9844190798
Bq        -0.0758963461    -2.9376629219    -0.7211249056
Bq         0.0835507091    -2.8312003175    -1.0721838045
Bq        -0.1157581099    -2.9642785730    -0.6333601809
Bq         0.1234124729    -2.8045846664    -1.1599485292
Bq        -0.1556198737    -2.9908942241    -0.5455954562
Bq         0.1632742366    -2.7779690153    -1.2477132539
Bq        -0.1954816374    -3.0175098753    -0.4578307315
Bq         0.2031360004    -2.7513533642    -1.3354779786
Bq         0.0038271815    -2.8844316197    -0.8966543551
Bq        -0.0470410557    -2.8146542881    -0.7846563799
Bq         0.0326824719    -2.7614229859    -0.9601858293
Bq        -0.0869028195    -2.8412699392    -0.6968916552
Bq         0.0725442357    -2.7348073348    -1.0479505540
Bq        -0.1267645832    -2.8678855903    -0.6091269305
Bq         0.1124059995    -2.7081916837    -1.1357152787
Bq        -0.1666263470    -2.8945012414    -0.5213622058
Bq         0.1522677633    -2.6815760326    -1.2234800035
Bq        -0.2064881108    -2.9211168925    -0.4335974810
Bq         0.1921295271    -2.6549603815    -1.3112447282
Bq        -0.0071792919    -2.7880386370    -0.8724211046
Bq        -0.0580475290    -2.7182613054    -0.7604231294
Bq         0.0216759985    -2.6650300032    -0.9359525789
Bq        -0.0979092928    -2.7448769565    -0.6726584047
Bq         0.0615377623    -2.6384143521    -1.0237173036
Bq        -0.1377710566    -2.7714926076    -0.5848936800
Bq         0.1013995261    -2.6117987010    -1.1114820283
Bq        -0.1776328204    -2.7981082587    -0.4971289553
Bq         0.1412612899    -2.5851830499    -1.1992467530
Bq        -0.2174945842    -2.8247239098    -0.4093642306
Bq         0.1811230537    -2.5585673988    -1.2870114777
Bq        -0.0181857652    -2.6916456543    -0.8481878541
Bq        -0.0690540024    -2.6218683227    -0.7361898790
Bq         0.0106695252    -2.5686370205    -0.9117193284
Bq        -0.1089157662    -2.6484839738    -0.6484251543
Bq         0.0505312890    -2.5420213694    -0.9994840531
Bq        -0.1487775300    -2.6750996249    -0.5606604296
Bq         0.0903930527    -2.5154057183    -1.0872487778
Bq        -0.1886392938    -2.7017152760    -0.4728957048
Bq         0.1302548165    -2.4887900672    -1.1750135025
Bq        -0.2285010576    -2.7283309271    -0.3851309801
Bq         0.1701165803    -2.4621744160    -1.2627782273
Bq        -0.0291922386    -2.5952526716    -0.8239546037
Bq        -0.0800604758    -2.5254753400    -0.7119566285
Bq        -0.0003369482    -2.4722440378    -0.8874860779
Bq        -0.1199222396    -2.5520909911    -0.6241919038
Bq         0.0395248156    -2.4456283867    -0.9752508027
Bq        -0.1597840034    -2.5787066422    -0.5364271791
Bq         0.0793865794    -2.4190127355    -1.0630155274
Bq        -0.1996457671    -2.6053222933    -0.4486624544
Bq         0.1192483432    -2.3923970844    -1.1507802521
Bq        -0.2395075309    -2.6319379444    -0.3608977297
Bq         0.1591101069    -2.3657814333    -1.2385449768
Bq        -0.0401987120    -2.4988596889    -0.7997213532
Bq        -0.0910669492    -2.4290823573    -0.6877233781
Bq        -0.0113434216    -2.3758510550    -0.8632528275
Bq        -0.1309287129    -2.4556980084    -0.5999586533
Bq         0.0285183422    -2.3492354039    -0.9510175522
Bq        -0.1707904767    -2.4823136595    -0.5121939286
Bq         0.0683801060    -2.3226197528    -1.0387822769
Bq        -0.2106522405    -2.5089293106    -0.4244292039
Bq         0.1082418698    -2.2960041017    -1.1265470016
Bq        -0.2505140043    -2.5355449617    -0.3366644792
Bq         0.1481036336    -2.2693884506    -1.2143117263
Bq        -0.0512051854    -2.4024667062    -0.7754881028
Bq        -0.1020734225    -2.3326893746    -0.6634901276
Bq        -0.0223498949    -2.2794580723    -0.8390195770
Bq        -0.1419351863    -2.3593050257    -0.5757254029
Bq         0.0175118688    -2.2528424212    -0.9267843017
Bq        -0.1817969501    -2.3859206768    -0.4879606782
Bq         0.0573736326    -2.2262267701    -1.0145490265
Bq        -0.2216587139    -2.4125363279    -0.4001959535
Bq         0.0972353964    -2.1996111190    -1.1023137512
Bq        -0.2615204777    -2.4391519790    -0.3124312288
Bq         0.1370971602    -2.1729954679    -1.1900784759
Bq        -0.0622116587    -2.3060737234    -0.7512548523
Bq        -0.1130798959    -2.2362963918    -0.6392568771
Bq        -0.0333563683    -2.1830650896    -0.8147863266
Bq        -0.1529416597    -2.2629120429    -0.5514921524
Bq         0.0065053955    -2.1564494385    -0.9025510513
Bq        -0.1928034235    -2.2895276941    -0.4637274277
Bq         0.0463671593    -2.1298337874    -0.9903157760
Bq        -0.2326651873    -2.3161433452    -0.3759627030
Bq         0.0862289230    -2.1032181363    -1.0780805007
Bq        -0.2725269510    -2.3427589963    -0.2881979783
Bq         0.1260906868    -2.0766024852    -1.1658452254
Bq        -0.0732181321    -2.2096807407    -0.7270216019
Bq        -0.1240863693    -2.1399034091    -0.6150236267
Bq        -0.0443628417    -2.0866721069    -0.7905530761
Bq        -0.1639481331    -2.1665190602    -0.5272589020
Bq        -0.0045010779    -2.0600564558    -0.8783178008
Bq        -0.2038098968    -2.1931347113    -0.4394941773
Bq         0.0353606859    -2.0334408047    -0.9660825255
Bq        -0.2436716606    -2.2197503624    -0.3517294526
Bq         0.0752224497    -2.0068251536    -1.0538472503
Bq        -0.2835334244    -2.2463660136    -0.2639647278
Bq         0.1150842135    -1.9802095025    -1.1416119750
Bq        -0.0842246055    -2.1132877580    -0.7027883514
Bq        -0.1350928426    -2.0435104264    -0.5907903762
Bq        -0.0553693151    -1.9902791242    -0.7663198257
Bq        -0.1749546064    -2.0701260775    -0.5030256515
Bq        -0.0155075513    -1.9636634731    -0.8540845504
Bq        -0.2148163702    -2.0967417286    -0.4152609268
Bq         0.0243542125    -1.9370478220    -0.9418492751
Bq        -0.2546781340    -2.1233573797    -0.3274962021
Bq         0.0642159763    -1.9104321709    -1.0296139998
Bq        -0.2945398978    -2.1499730308    -0.2397314774
Bq         0.1040777401    -1.8838165198    -1.1173787245
Bq        -0.0952310789    -2.0168947753    -0.6785551009
Bq        -0.1460993160    -1.9471174437    -0.5665571258
Bq        -0.0663757884    -1.8938861415    -0.7420865752
Bq        -0.1859610798    -1.9737330948    -0.4787924011
Bq        -0.0265140247    -1.8672704904    -0.8298512999
Bq        -0.2258228436    -2.0003487459    -0.3910276763
Bq         0.0133477391    -1.8406548393    -0.9176160246
Bq        -0.2656846074    -2.0269643970    -0.3032629516
Bq         0.0532095029    -1.8140391882    -1.0053807493
Bq        -0.3055463712    -2.0535800481    -0.2154982269
Bq         0.0930712667    -1.7874235371    -1.0931454740
Bq        -0.1062375522    -1.9205017926    -0.6543218505
Bq        -0.1571057894    -1.8507244610    -0.5423238753
Bq        -0.0773822618    -1.7974931588    -0.7178533247
Bq        -0.1969675532    -1.8773401121    -0.4545591506
Bq        -0.0375204980    -1.7708775077    -0.8056180495
Bq        -0.2368293170    -1.9039557632    -0.3667944259
Bq         0.0023412658    -1.7442618566    -0.8933827742
Bq        -0.2766910807    -1.9305714143    -0.2790297012
Bq         0.0422030296    -1.7176462055    -0.9811474989
Bq        -0.3165528445    -1.9571870654    -0.1912649765
Bq         0.0820647933    -1.6910305543    -1.0689122236
Bq        -0.1172440256    -1.8241088099    -0.6300886000
Bq        -0.1681122628    -1.7543314783    -0.5180906249
Bq        -0.0883887352    -1.7011001761    -0.6936200743
Bq        -0.2079740265    -1.7809471294    -0.4303259001
Bq        -0.0485269714    -1.6744845250    -0.7813847990
Bq        -0.2478357903    -1.8075627805    -0.3425611754
Bq        -0.0086652076    -1.6478688739    -0.8691495237
Bq        -0.2876975541    -1.8341784316    -0.2547964507
Bq         0.0311965562    -1.6212532227    -0.9569142484
Bq        -0.3275593179    -1.8607940827    -0.1670317260
Bq         0.0710583200    -1.5946375716    -1.0446789731
Bq        -0.1282504990    -1.7277158272    -0.6058553496
Bq        -0.1791187361    -1.6579384956    -0.4938573744
Bq        -0.0993952086    -1.6047071934    -0.6693868238
Bq        -0.2189804999    -1.6845541467    -0.4060926497
Bq        -0.0595334448    -1.5780915422    -0.7571515485
Bq        -0.2588422637    -1.7111697978    -0.3183279250
Bq        -0.0196716810    -1.5514758911    -0.8449162732
Bq        -0.2987040275    -1.7377854489    -0.2305632003
Bq         0.0201900828    -1.5248602400    -0.9326809980
Bq        -0.3385657913    -1.7644011000    -0.1427984755
Bq         0.0600518466    -1.4982445889    -1.0204457227
Bq        -0.1392569723    -1.6313228445    -0.5816220991
Bq        -0.1901252095    -1.5615455129    -0.4696241239
Bq        -0.1104016819    -1.5083142106    -0.6451535734
Bq        -0.2299869733    -1.5881611640    -0.3818593992
Bq        -0.0705399181    -1.4816985595    -0.7329182981
Bq        -0.2698487371    -1.6147768151    -0.2940946745
Bq        -0.0306781544    -1.4550829084    -0.8206830228
Bq        -0.3097105009    -1.6413924662    -0.2063299498
Bq         0.0091836094    -1.4284672573    -0.9084477475
Bq        -0.3495722647    -1.6680081173    -0.1185652251
Bq         0.0490453732    -1.4018516062    -0.9962124722
Bq        -0.1502634457    -1.5349298617    -0.5573888487
Bq        -0.2011316829    -1.4651525301    -0.4453908735
Bq        -0.1214081553    -1.4119212279    -0.6209203229
Bq        -0.2409934467    -1.4917681812    -0.3576261488
Bq        -0.0815463915    -1.3853055768    -0.7086850476
Bq        -0.2808552104    -1.5183838324    -0.2698614241
Bq        -0.0416846277    -1.3586899257    -0.7964497723
Bq        -0.3207169742    -1.5449994835    -0.1820966993
Bq        -0.0018228639    -1.3320742746    -0.8842144970
Bq        -0.3605787380    -1.5716151346    -0.0943319746
Bq         0.0380388999    -1.3054586235    -0.9719792218
Bq        -0.1612699191    -1.4385368790    -0.5331555982
Bq        -0.2121381562    -1.3687595474    -0.4211576230
Bq        -0.1324146287    -1.3155282452    -0.5966870725
Bq        -0.2519999200    -1.3953751985    -0.3333928983
Bq        -0.0925528649    -1.2889125941    -0.6844517972
Bq        -0.2918616838    -1.4219908496    -0.2456281736
Bq        -0.0526911011    -1.2622969430    -0.7722165219
Bq        -0.3317234476    -1.4486065008    -0.1578634489
Bq        -0.0128293373    -1.2356812919    -0.8599812466
Bq        -0.3715852114    -1.4752221519    -0.0700987242
Bq         0.0270324265    -1.2090656408    -0.9477459713
Bq        -0.1722763925    -1.3421438963    -0.5089223477
Bq        -0.2231446296    -1.2723665647    -0.3969243726
Bq        -0.1434211020    -1.2191352625    -0.5724538220
Bq        -0.2630063934    -1.2989822158    -0.3091596479
Bq        -0.1035593383    -1.1925196114    -0.6602185467
Bq        -0.3028681572    -1.3255978669    -0.2213949231
Bq        -0.0636975745    -1.1659039603    -0.7479832714
Bq        -0.3427299210    -1.3522135180    -0.1336301984
Bq        -0.0238358107    -1.1392883092    -0.8357479961
Bq        -0.3825916848    -1.3788291691    -0.0458654737
Bq         0.0160259531    -1.1126726581    -0.9235127208

1
2
3
4
5
6
7
8
9
10
11
12
13
14
15
16
17
18
19
20
21
22
23
24
25
26
27
28
29
30
31
32
33
34
35
36
37
38
39
40
41
42
43
44
45
46
47
48
49
50
51
52
53
54
55
56
57
58
59
60
61
62
63
64
65
66
67
68
69
70
71
72
73
74
75
76
77
78
79
80
81
82
83
84
85
86
87
88
89
90
91
92
93
94
95
96
97
98
99
100
101
102
103
104
105
106
107
108
109
110
111
112
113
114
115
116
117
118
119
120
121
122
123
124
125
126
127
128
129
130
131
132
133
134
135
136
137
138
139
140
141
142
143
144
145
146
147
148
149
150
151
152
153
154
155
156
157
158
159
160
161
162
163
164
165
166
167
168
169
170
171
172
173
174
175
176
177
178
179
180
181
182
183
184
185
186
187
188
189
190
191
192
193
194
195
196
197
198
199
200
201
202
203
204
205
206
207
208
209
210
211
212
213
214
215
216
217
218
219
220
221
222
223
224
225
226
227
228
229
230
231
232
233
234
235
236

