%nproc=8
%mem=1000MB
# rb3lyp/6-311+g** NMR geom=connectivity

Title

0 1
C    -4.0500558   -0.5771862    0.8136712
H    -5.0263804   -1.0082727    1.0024760
C    -3.9381552    0.6617804    0.2400876
H    -4.8252424    1.2338890   -0.0111295
C    -2.6768410    1.2433246    0.0057578
C    -1.4974121    0.5051527    0.2848253
C    -1.6508332   -0.7338728    0.9404026
H    -0.7713646   -1.2730967    1.2633753
C    -2.8898548   -1.2624035    1.1994307
H    -2.9683706   -2.2124563    1.7152676
C    -2.5773185    2.5963696   -0.4192930
H    -3.4870728    3.1412239   -0.6474055
C    -1.3741895    3.2147896   -0.4364030
H    -1.2997315    4.2742019   -0.6578144
C    -0.1719488    2.4994090   -0.1734588
C    -0.2043917    1.1018437    0.0192689
C     1.0513491    3.2042560   -0.0676222
H     1.0427344    4.2819499   -0.1896997
C     2.1942091    2.5487446    0.2579577
H     3.1168527    3.0912848    0.4334727
C     2.2216473    1.1336562    0.2934990
C     1.0486931    0.3945528    0.0302412
C     3.4483363    0.4614633    0.5573939
H     4.3095794    1.0606054    0.8334846
C     3.5427346   -0.8855926    0.4749463
H     4.4731467   -1.3939704    0.7038822
C     2.4490052   -1.6474447   -0.0196319
C     1.2150704   -1.0057258   -0.3013573
C     0.2531113   -1.7434440   -1.0216591
H    -0.6541356   -1.2535051   -1.3462847
C     0.4494193   -3.0628597   -1.3413779
H    -0.3083162   -3.5944309   -1.9054060
C     1.6251726   -3.7207967   -0.9552541
H     1.7670048   -4.7687404   -1.1927019
C     2.6109872   -3.0144177   -0.3183050
H     3.5525612   -3.4902813   -0.0646367
Bq         1.9956766111    -0.2303374011     0.6123390465
Bq         1.9663066962    -0.1455823661     0.7216733601
Bq         2.0176644249    -0.1171270480     0.5304858119
Bq         1.9406278319    -0.1598100251     0.8172671342
Bq         2.0433432892    -0.1028993890     0.4348920378
Bq         1.9149489676    -0.1740376842     0.9128609083
Bq         2.0690221535    -0.0886717300     0.3392982637
Bq         1.8892701033    -0.1882653432     1.0084546824
Bq         2.0947010178    -0.0744440710     0.2437044896
Bq         1.8635912389    -0.2024930022     1.1040484565
Bq         2.1203798822    -0.0602164119     0.1481107155
Bq         1.9919855606    -0.1313547071     0.6260795860
Bq         1.9626156457    -0.0465996721     0.7354138997
Bq         2.0139733743    -0.0181443540     0.5442263515
Bq         1.9369367814    -0.0608273311     0.8310076738
Bq         2.0396522387    -0.0039166950     0.4486325774
Bq         1.9112579171    -0.0750549901     0.9266014479
Bq         2.0653311030     0.0103109641     0.3530388033
Bq         1.8855790527    -0.0892826491     1.0221952220
Bq         2.0910099673     0.0245386231     0.2574450292
Bq         1.8599001884    -0.1035103082     1.1177889960
Bq         2.1166888316     0.0387662821     0.1618512551
Bq         1.9882945100    -0.0323720130     0.6398201256
Bq         1.9589245952     0.0523830220     0.7491544392
Bq         2.0102823238     0.0808383400     0.5579668910
Bq         1.9332457308     0.0381553629     0.8447482133
Bq         2.0359611881     0.0950659991     0.4623731169
Bq         1.9075668665     0.0239277039     0.9403419874
Bq         2.0616400525     0.1092936581     0.3667793428
Bq         1.8818880022     0.0097000449     1.0359357615
Bq         2.0873189168     0.1235213171     0.2711855688
Bq         1.8562091379    -0.0045276141     1.1315295356
Bq         2.1129977811     0.1377489761     0.1755917947
Bq         1.9846034595     0.0666106810     0.6535606651
Bq         1.9552335446     0.1513657160     0.7628949788
Bq         2.0065912733     0.1798210341     0.5717074306
Bq         1.9295546803     0.1371380570     0.8584887529
Bq         2.0322701376     0.1940486931     0.4761136565
Bq         1.9038758160     0.1229103980     0.9540825270
Bq         2.0579490019     0.2082763521     0.3805198824
Bq         1.8781969517     0.1086827389     1.0496763011
Bq         2.0836278662     0.2225040112     0.2849261083
Bq         1.8525180873     0.0944550799     1.1452700752
Bq         2.1093067306     0.2367316702     0.1893323342
Bq         1.9809124090     0.1655933750     0.6673012047
Bq         1.9515424941     0.2503484100     0.7766355183
Bq         2.0029002227     0.2788037281     0.5854479702
Bq         1.9258636298     0.2361207510     0.8722292924
Bq         2.0285790871     0.2930313871     0.4898541961
Bq         1.9001847654     0.2218930920     0.9678230665
Bq         2.0542579514     0.3072590462     0.3942604220
Bq         1.8745059011     0.2076654330     1.0634168406
Bq         2.0799368157     0.3214867052     0.2986666479
Bq         1.8488270368     0.1934377739     1.1590106147
Bq         2.1056156800     0.3357143642     0.2030728738
Bq         1.9772213584     0.2645760691     0.6810417442
Bq         1.9478514436     0.3493311041     0.7903760579
Bq         1.9992091722     0.3777864221     0.5991885097
Bq         1.9221725792     0.3351034451     0.8859698320
Bq         2.0248880365     0.3920140812     0.5035947356
Bq         1.8964937149     0.3208757860     0.9815636061
Bq         2.0505669008     0.4062417402     0.4080009615
Bq         1.8708148506     0.3066481270     1.0771573802
Bq         2.0762457652     0.4204693992     0.3124071874
Bq         1.8451359863     0.2924204680     1.1727511543
Bq         2.1019246295     0.4346970583     0.2168134133
Bq         1.9735303079     0.3635587631     0.6947822838
Bq         1.9441603930     0.4483137981     0.8041165975
Bq         1.9955181217     0.4767691162     0.6129290493
Bq         1.9184815287     0.4340861391     0.8997103716
Bq         2.0211969860     0.4909967752     0.5173352752
Bq         1.8928026644     0.4198584801     0.9953041457
Bq         2.0468758503     0.5052244342     0.4217415011
Bq         1.8671238001     0.4056308210     1.0908979197
Bq         2.0725547146     0.5194520933     0.3261477270
Bq         1.8414449357     0.3914031620     1.1864916938
Bq         2.0982335790     0.5336797523     0.2305539529
Bq         1.9698392573     0.4625414571     0.7085228234
Bq         1.9404693425     0.5472964922     0.8178571370
Bq         1.9918270711     0.5757518102     0.6266695888
Bq         1.9147904782     0.5330688331     0.9134509111
Bq         2.0175059355     0.5899794692     0.5310758147
Bq         1.8891116138     0.5188411741     1.0090446852
Bq         2.0431847998     0.6042071283     0.4354820406
Bq         1.8634327495     0.5046135151     1.1046384593
Bq         2.0688636641     0.6184347873     0.3398882665
Bq         1.8377538852     0.4903858560     1.2002322334
Bq         2.0945425284     0.6326624463     0.2442944925
Bq         1.9661482068     0.5615241512     0.7222633629
Bq         1.9367782920     0.6462791862     0.8315976766
Bq         1.9881360206     0.6747345042     0.6404101284
Bq         1.9110994276     0.6320515272     0.9271914507
Bq         2.0138148849     0.6889621633     0.5448163543
Bq         1.8854205633     0.6178238681     1.0227852248
Bq         2.0394937492     0.7031898223     0.4492225802
Bq         1.8597416990     0.6035962091     1.1183789989
Bq         2.0651726136     0.7174174813     0.3536288061
Bq         1.8340628347     0.5893685501     1.2139727730
Bq         2.0908514779     0.7316451404     0.2580350320
Bq         1.9624571563     0.6605068452     0.7360039025
Bq         1.9330872414     0.7452618802     0.8453382161
Bq         1.9844449701     0.7737171983     0.6541506679
Bq         1.9074083771     0.7310342212     0.9409319902
Bq         2.0101238344     0.7879448573     0.5585568939
Bq         1.8817295128     0.7168065622     1.0365257643
Bq         2.0358026987     0.8021725163     0.4629631198
Bq         1.8560506484     0.7025789031     1.1321195384
Bq         2.0614815630     0.8164001754     0.3673693457
Bq         1.8303717841     0.6883512441     1.2277133125
Bq         2.0871604274     0.8306278344     0.2717755716
Bq         1.9587661057     0.7594895393     0.7497444420
Bq         1.9293961909     0.8442445743     0.8590787557
Bq         1.9807539195     0.8726998923     0.6678912075
Bq         1.9037173266     0.8300169152     0.9546725298
Bq         2.0064327838     0.8869275513     0.5722974334
Bq         1.8780384622     0.8157892562     1.0502663039
Bq         2.0321116482     0.9011552104     0.4767036593
Bq         1.8523595979     0.8015615972     1.1458600780
Bq         2.0577905125     0.9153828694     0.3811098852
Bq         1.8266807336     0.7873339381     1.2414538521
Bq         2.0834693768     0.9296105284     0.2855161111
Bq         1.9550750552     0.8584722333     0.7634849816
Bq         1.9257051403     0.9432272683     0.8728192953
Bq         1.9770628690     0.9716825864     0.6816317471
Bq         1.9000262760     0.9289996093     0.9684130694
Bq         2.0027417333     0.9859102454     0.5860379730
Bq         1.8743474117     0.9147719502     1.0640068434
Bq         2.0284205976     1.0001379044     0.4904441989
Bq         1.8486685474     0.9005442912     1.1596006175
Bq         2.0540994620     1.0143655634     0.3948504248
Bq         1.8229896831     0.8863166322     1.2551943916
Bq         2.0797783263     1.0285932225     0.2992566507
Bq         1.9513840047     0.9574549273     0.7772255212
Bq         1.9220140898     1.0422099623     0.8865598348
Bq         1.9733718185     1.0706652804     0.6953722866
Bq         1.8963352255     1.0279823033     0.9821536089
Bq         1.9990506828     1.0848929394     0.5997785125
Bq         1.8706563612     1.0137546443     1.0777473830
Bq         2.0247295471     1.0991205984     0.5041847384
Bq         1.8449774968     0.9995269852     1.1733411571
Bq         2.0504084114     1.1133482575     0.4085909643
Bq         1.8192986325     0.9852993262     1.2689349312
Bq         2.0760872757     1.1275759165     0.3129971902
Bq         1.9476929541     1.0564376214     0.7909660607
Bq         1.9183230393     1.1411926564     0.9003003744
Bq         1.9696807679     1.1696479744     0.7091128262
Bq         1.8926441750     1.1269649973     0.9958941485
Bq         1.9953596322     1.1838756335     0.6135190521
Bq         1.8669653106     1.1127373383     1.0914879226
Bq         2.0210384966     1.1981032925     0.5179252780
Bq         1.8412864463     1.0985096793     1.1870816967
Bq         2.0467173609     1.2123309515     0.4223315039
Bq         1.8156075820     1.0842820203     1.2826754708
Bq         2.0723962252     1.2265586105     0.3267377298
Bq         1.9440019036     1.1554203154     0.8047066003
Bq         1.9146319887     1.2401753504     0.9140409139
Bq         1.9659897174     1.2686306685     0.7228533657
Bq         1.8889531244     1.2259476914     1.0096346880
Bq         1.9916685817     1.2828583275     0.6272595916
Bq         1.8632742601     1.2117200323     1.1052284621
Bq         2.0173474460     1.2970859865     0.5316658176
Bq         1.8375953958     1.1974923733     1.2008222362
Bq         2.0430263104     1.3113136455     0.4360720435
Bq         1.8119165314     1.1832647143     1.2964160103
Bq         2.0687051747     1.3255413046     0.3404782694
Bq         1.9403108531     1.2544030094     0.8184471398
Bq         1.9109409382     1.3391580444     0.9277814535
Bq         1.9622986668     1.3676133625     0.7365939053
Bq         1.8852620739     1.3249303854     1.0233752276
Bq         1.9879775312     1.3818410215     0.6410001312
Bq         1.8595832096     1.3107027264     1.1189690017
Bq         2.0136563955     1.3960686806     0.5454063571
Bq         1.8339043452     1.2964750674     1.2145627758
Bq         2.0393352598     1.4102963396     0.4498125830
Bq         1.8082254809     1.2822474083     1.3101565499
Bq         2.0650141241     1.4245239986     0.3542188089
Bq         1.9366198025     1.3533857035     0.8321876794
Bq         1.9072498877     1.4381407385     0.9415219931
Bq         1.9586076163     1.4665960565     0.7503344449
Bq         1.8815710233     1.4239130794     1.0371157671
Bq         1.9842864806     1.4808237156     0.6547406708
Bq         1.8558921590     1.4096854204     1.1327095412
Bq         2.0099653450     1.4950513746     0.5591468967
Bq         1.8302132947     1.3954577614     1.2283033153
Bq         2.0356442093     1.5092790336     0.4635531226
Bq         1.8045344304     1.3812301024     1.3238970894
Bq         2.0613230736     1.5235066926     0.3679593485
Bq         1.9329287520     1.4523683975     0.8459282190
Bq         1.9035588371     1.5371234325     0.9552625326
Bq         1.9549165658     1.5655787506     0.7640749844
Bq         1.8778799728     1.5228957735     1.0508563067
Bq         1.9805954301     1.5798064096     0.6684812103
Bq         1.8522011085     1.5086681145     1.1464500808
Bq         2.0062742944     1.5940340686     0.5728874362
Bq         1.8265222442     1.4944404554     1.2420438549
Bq         2.0319531587     1.6082617277     0.4772936621
Bq         1.8008433798     1.4802127964     1.3376376290
Bq         2.0576320231     1.6224893867     0.3816998880
Bq         1.9292377015     1.5513510915     0.8596687585
Bq         1.8998677866     1.6361061265     0.9690030722

1
2
3
4
5
6
7
8
9
10
11
12
13
14
15
16
17
18
19
20
21
22
23
24
25
26
27
28
29
30
31
32
33
34
35
36
37
38
39
40
41
42
43
44
45
46
47
48
49
50
51
52
53
54
55
56
57
58
59
60
61
62
63
64
65
66
67
68
69
70
71
72
73
74
75
76
77
78
79
80
81
82
83
84
85
86
87
88
89
90
91
92
93
94
95
96
97
98
99
100
101
102
103
104
105
106
107
108
109
110
111
112
113
114
115
116
117
118
119
120
121
122
123
124
125
126
127
128
129
130
131
132
133
134
135
136
137
138
139
140
141
142
143
144
145
146
147
148
149
150
151
152
153
154
155
156
157
158
159
160
161
162
163
164
165
166
167
168
169
170
171
172
173
174
175
176
177
178
179
180
181
182
183
184
185
186
187
188
189
190
191
192
193
194
195
196
197
198
199
200
201
202
203
204
205
206
207
208
209
210
211
212
213
214
215
216
217
218
219
220
221
222
223
224
225
226
227
228
229
230
231
232
233
234
235
236

