%nproc=8
%mem=1000MB
# rb3lyp/6-311+g** NMR geom=connectivity

Title

0 1
C    -4.0500558   -0.5771862    0.8136712
H    -5.0263804   -1.0082727    1.0024760
C    -3.9381552    0.6617804    0.2400876
H    -4.8252424    1.2338890   -0.0111295
C    -2.6768410    1.2433246    0.0057578
C    -1.4974121    0.5051527    0.2848253
C    -1.6508332   -0.7338728    0.9404026
H    -0.7713646   -1.2730967    1.2633753
C    -2.8898548   -1.2624035    1.1994307
H    -2.9683706   -2.2124563    1.7152676
C    -2.5773185    2.5963696   -0.4192930
H    -3.4870728    3.1412239   -0.6474055
C    -1.3741895    3.2147896   -0.4364030
H    -1.2997315    4.2742019   -0.6578144
C    -0.1719488    2.4994090   -0.1734588
C    -0.2043917    1.1018437    0.0192689
C     1.0513491    3.2042560   -0.0676222
H     1.0427344    4.2819499   -0.1896997
C     2.1942091    2.5487446    0.2579577
H     3.1168527    3.0912848    0.4334727
C     2.2216473    1.1336562    0.2934990
C     1.0486931    0.3945528    0.0302412
C     3.4483363    0.4614633    0.5573939
H     4.3095794    1.0606054    0.8334846
C     3.5427346   -0.8855926    0.4749463
H     4.4731467   -1.3939704    0.7038822
C     2.4490052   -1.6474447   -0.0196319
C     1.2150704   -1.0057258   -0.3013573
C     0.2531113   -1.7434440   -1.0216591
H    -0.6541356   -1.2535051   -1.3462847
C     0.4494193   -3.0628597   -1.3413779
H    -0.3083162   -3.5944309   -1.9054060
C     1.6251726   -3.7207967   -0.9552541
H     1.7670048   -4.7687404   -1.1927019
C     2.6109872   -3.0144177   -0.3183050
H     3.5525612   -3.4902813   -0.0646367
Bq         3.4374137290    -2.1536915649     1.0271918440
Bq         3.5914869149    -2.0683256107     0.4536291994
Bq         3.4117348647    -2.1679192239     1.1227856180
Bq         3.6171657793    -2.0540979517     0.3580354253
Bq         3.3860560003    -2.1821468829     1.2183793921
Bq         3.6428446436    -2.0398702926     0.2624416512
Bq         3.5144503220    -2.1110085878     0.7404105217
Bq         3.4850804071    -2.0262535528     0.8497448353
Bq         3.5364381357    -1.9977982347     0.6585572871
Bq         3.4594015428    -2.0404812118     0.9453386094
Bq         3.5621170001    -1.9835705757     0.5629635130
Bq         3.4337226785    -2.0547088708     1.0409323835
Bq         3.5877958644    -1.9693429167     0.4673697389
Bq         3.4080438141    -2.0689365299     1.1365261576
Bq         3.6134747287    -1.9551152576     0.3717759649
Bq         3.3823649498    -2.0831641889     1.2321199317
Bq         3.6391535930    -1.9408875986     0.2761821908
Bq         3.5107592714    -2.0120258937     0.7541510612
Bq         3.4813893566    -1.9272708587     0.8634853749
Bq         3.5327470852    -1.8988155407     0.6722978267
Bq         3.4557104922    -1.9414985178     0.9590791490
Bq         3.5584259495    -1.8845878817     0.5767040526
Bq         3.4300316279    -1.9557261768     1.0546729231
Bq         3.5841048139    -1.8703602226     0.4811102785
Bq         3.4043527636    -1.9699538358     1.1502666972
Bq         3.6097836782    -1.8561325636     0.3855165044
Bq         3.3786738993    -1.9841814949     1.2458604713
Bq         3.6354625425    -1.8419049046     0.2899227303
Bq         3.5070682209    -1.9130431997     0.7678916008
Bq         3.4776983060    -1.8282881647     0.8772259144
Bq         3.5290560347    -1.7998328466     0.6860383663
Bq         3.4520194417    -1.8425158237     0.9728196885
Bq         3.5547348990    -1.7856051876     0.5904445922
Bq         3.4263405774    -1.8567434828     1.0684134626
Bq         3.5804137633    -1.7713775286     0.4948508181
Bq         3.4006617131    -1.8709711418     1.1640072367
Bq         3.6060926276    -1.7571498696     0.3992570440
Bq         3.3749828487    -1.8851988008     1.2596010108
Bq         3.6317714920    -1.7429222105     0.3036632699
Bq         3.5033771704    -1.8140605057     0.7816321403
Bq         3.4740072555    -1.7293054707     0.8909664540
Bq         3.5253649841    -1.7008501526     0.6997789058
Bq         3.4483283912    -1.7435331297     0.9865602281
Bq         3.5510438485    -1.6866224936     0.6041851317
Bq         3.4226495269    -1.7577607887     1.0821540022
Bq         3.5767227128    -1.6723948346     0.5085913576
Bq         3.3969706625    -1.7719884478     1.1777477763
Bq         3.6024015771    -1.6581671755     0.4129975835
Bq         3.3712917982    -1.7862161068     1.2733415504
Bq         3.6280804414    -1.6439395165     0.3174038094
Bq         3.4996861198    -1.7150778116     0.7953726799
Bq         3.4703162050    -1.6303227766     0.9047069936
Bq         3.5216739336    -1.6018674586     0.7135194454
Bq         3.4446373406    -1.6445504357     1.0003007677
Bq         3.5473527979    -1.5876397995     0.6179256713
Bq         3.4189584763    -1.6587780947     1.0958945417
Bq         3.5730316623    -1.5734121405     0.5223318972
Bq         3.3932796120    -1.6730057537     1.1914883158
Bq         3.5987105266    -1.5591844815     0.4267381231
Bq         3.3676007477    -1.6872334127     1.2870820899
Bq         3.6243893909    -1.5449568225     0.3311443490
Bq         3.4959950693    -1.6160951176     0.8091132195
Bq         3.4666251544    -1.5313400826     0.9184475331
Bq         3.5179828831    -1.5028847645     0.7272599849
Bq         3.4409462901    -1.5455677416     1.0140413072
Bq         3.5436617474    -1.4886571055     0.6316662108
Bq         3.4152674258    -1.5597954007     1.1096350813
Bq         3.5693406117    -1.4744294465     0.5360724367
Bq         3.3895885615    -1.5740230597     1.2052288554
Bq         3.5950194760    -1.4602017875     0.4404786626
Bq         3.3639096971    -1.5882507187     1.3008226295
Bq         3.6206983404    -1.4459741284     0.3448848886
Bq         3.4923040187    -1.5171124236     0.8228537590
Bq         3.4629341039    -1.4323573886     0.9321880727
Bq         3.5142918325    -1.4039020705     0.7410005245
Bq         3.4372552396    -1.4465850476     1.0277818468
Bq         3.5399706969    -1.3896744115     0.6454067504
Bq         3.4115763752    -1.4608127066     1.1233756209
Bq         3.5656495612    -1.3754467524     0.5498129763
Bq         3.3858975109    -1.4750403656     1.2189693950
Bq         3.5913284255    -1.3612190934     0.4542192022
Bq         3.3602186466    -1.4892680247     1.3145631691
Bq         3.6170072898    -1.3469914344     0.3586254281
Bq         3.4886129682    -1.4181297295     0.8365942986
Bq         3.4592430534    -1.3333746945     0.9459286122
Bq         3.5106007820    -1.3049193765     0.7547410640
Bq         3.4335641890    -1.3476023536     1.0415223863
Bq         3.5362796463    -1.2906917174     0.6591472900
Bq         3.4078853247    -1.3618300126     1.1371161604
Bq         3.5619585106    -1.2764640584     0.5635535159
Bq         3.3822064604    -1.3760576716     1.2327099345
Bq         3.5876373750    -1.2622363994     0.4679597418
Bq         3.3565275961    -1.3902853306     1.3283037086
Bq         3.6133162393    -1.2480087404     0.3723659677
Bq         3.4849219177    -1.3191470355     0.8503348381
Bq         3.4555520028    -1.2343920005     0.9596691518
Bq         3.5069097315    -1.2059366824     0.7684816036
Bq         3.4298731385    -1.2486196595     1.0552629259
Bq         3.5325885958    -1.1917090234     0.6728878295
Bq         3.4041942742    -1.2628473185     1.1508567000
Bq         3.5582674601    -1.1774813644     0.5772940554
Bq         3.3785154099    -1.2770749776     1.2464504741
Bq         3.5839463244    -1.1632537054     0.4817002813
Bq         3.3528365455    -1.2913026366     1.3420442482
Bq         3.6096251888    -1.1490260463     0.3861065072
Bq         3.4812308671    -1.2201643415     0.8640753777
Bq         3.4518609523    -1.1354093065     0.9734096914
Bq         3.5032186809    -1.1069539884     0.7822221432
Bq         3.4261820880    -1.1496369655     1.0690034654
Bq         3.5288975453    -1.0927263294     0.6866283691
Bq         3.4005032236    -1.1638646245     1.1645972395
Bq         3.5545764096    -1.0784986703     0.5910345950
Bq         3.3748243593    -1.1780922835     1.2601910136
Bq         3.5802552739    -1.0642710113     0.4954408209
Bq         3.3491454950    -1.1923199426     1.3557847877
Bq         3.6059341382    -1.0500433523     0.3998470468
Bq         3.4775398166    -1.1211816474     0.8778159173
Bq         3.4481699018    -1.0364266124     0.9871502309
Bq         3.4995276304    -1.0079712944     0.7959626827
Bq         3.4224910374    -1.0506542714     1.0827440050
Bq         3.5252064947    -0.9937436353     0.7003689086
Bq         3.3968121731    -1.0648819305     1.1783377791
Bq         3.5508853590    -0.9795159763     0.6047751345
Bq         3.3711333088    -1.0791095895     1.2739315532
Bq         3.5765642234    -0.9652883173     0.5091813604
Bq         3.3454544445    -1.0933372485     1.3695253273
Bq         3.6022430877    -0.9510606583     0.4135875863
Bq         3.4738487661    -1.0221989534     0.8915564568
Bq         3.4444788512    -0.9374439184     1.0008907705
Bq         3.4958365799    -0.9089886003     0.8097032223
Bq         3.4187999869    -0.9516715774     1.0964845446
Bq         3.5215154442    -0.8947609413     0.7141094482
Bq         3.3931211226    -0.9658992364     1.1920783187
Bq         3.5471943085    -0.8805332823     0.6185156741
Bq         3.3674422582    -0.9801268955     1.2876720928
Bq         3.5728731728    -0.8663056232     0.5229219000
Bq         3.3417633939    -0.9943545545     1.3832658669
Bq         3.5985520372    -0.8520779642     0.4273281259
Bq         3.4701577155    -0.9232162594     0.9052969964
Bq         3.4407878007    -0.8384612243     1.0146313100
Bq         3.4921455293    -0.8100059063     0.8234437618
Bq         3.4151089364    -0.8526888834     1.1102250841
Bq         3.5178243936    -0.7957782473     0.7278499877
Bq         3.3894300720    -0.8669165424     1.2058188582
Bq         3.5435032580    -0.7815505882     0.6322562137
Bq         3.3637512077    -0.8811442014     1.3014126323
Bq         3.5691821223    -0.7673229292     0.5366624396
Bq         3.3380723434    -0.8953718605     1.3970064064
Bq         3.5948609866    -0.7530952702     0.4410686655
Bq         3.4664666650    -0.8242335653     0.9190375359
Bq         3.4370967501    -0.7394785303     1.0283718496
Bq         3.4884544788    -0.7110232123     0.8371843014
Bq         3.4114178858    -0.7537061893     1.1239656237
Bq         3.5141333431    -0.6967955532     0.7415905273
Bq         3.3857390215    -0.7679338484     1.2195593978
Bq         3.5398122074    -0.6825678942     0.6459967532
Bq         3.3600601572    -0.7821615074     1.3151531719
Bq         3.5654910718    -0.6683402352     0.5504029791
Bq         3.3343812929    -0.7963891664     1.4107469460
Bq         3.5911699361    -0.6541125761     0.4548092050
Bq         3.4627756145    -0.7252508713     0.9327780755
Bq         3.4334056996    -0.6404958363     1.0421123891
Bq         3.4847634283    -0.6120405182     0.8509248410
Bq         3.4077268353    -0.6547234953     1.1377061632
Bq         3.5104422926    -0.5978128592     0.7553310669
Bq         3.3820479710    -0.6689511543     1.2332999373
Bq         3.5361211569    -0.5835852002     0.6597372928
Bq         3.3563691066    -0.6831788134     1.3288937114
Bq         3.5618000212    -0.5693575411     0.5641435187
Bq         3.3306902423    -0.6974064724     1.4244874855
Bq         3.5874788855    -0.5551298821     0.4685497446
Bq         3.4590845639    -0.6262681772     0.9465186151
Bq         3.4297146491    -0.5415131422     1.0558529287
Bq         3.4810723777    -0.5130578242     0.8646653805
Bq         3.4040357848    -0.5557408013     1.1514467028
Bq         3.5067512420    -0.4988301652     0.7690716064
Bq         3.3783569204    -0.5699684603     1.2470404769
Bq         3.5324301064    -0.4846025061     0.6734778323
Bq         3.3526780561    -0.5841961193     1.3426342510
Bq         3.5581089707    -0.4703748471     0.5778840582
Bq         3.3269991918    -0.5984237784     1.4382280251
Bq         3.5837878350    -0.4561471881     0.4822902841
Bq         3.4553935134    -0.5272854832     0.9602591546
Bq         3.4260235985    -0.4425304482     1.0695934683
Bq         3.4773813272    -0.4140751301     0.8784059201
Bq         3.4003447342    -0.4567581072     1.1651872424
Bq         3.5030601915    -0.3998474711     0.7828121460
Bq         3.3746658699    -0.4709857663     1.2607810165
Bq         3.5287390558    -0.3856198121     0.6872183719
Bq         3.3489870056    -0.4852134253     1.3563747906
Bq         3.5544179202    -0.3713921531     0.5916245978
Bq         3.3233081412    -0.4994410843     1.4519685646
Bq         3.5800967845    -0.3571644940     0.4960308237
Bq         3.4517024629    -0.4283027892     0.9739996942
Bq         3.4223325480    -0.3435477542     1.0833340078
Bq         3.4736902766    -0.3150924361     0.8921464596
Bq         3.3966536837    -0.3577754132     1.1789277819
Bq         3.4993691410    -0.3008647771     0.7965526855
Bq         3.3709748194    -0.3720030722     1.2745215560
Bq         3.5250480053    -0.2866371181     0.7009589114

1
2
3
4
5
6
7
8
9
10
11
12
13
14
15
16
17
18
19
20
21
22
23
24
25
26
27
28
29
30
31
32
33
34
35
36
37
38
39
40
41
42
43
44
45
46
47
48
49
50
51
52
53
54
55
56
57
58
59
60
61
62
63
64
65
66
67
68
69
70
71
72
73
74
75
76
77
78
79
80
81
82
83
84
85
86
87
88
89
90
91
92
93
94
95
96
97
98
99
100
101
102
103
104
105
106
107
108
109
110
111
112
113
114
115
116
117
118
119
120
121
122
123
124
125
126
127
128
129
130
131
132
133
134
135
136
137
138
139
140
141
142
143
144
145
146
147
148
149
150
151
152
153
154
155
156
157
158
159
160
161
162
163
164
165
166
167
168
169
170
171
172
173
174
175
176
177
178
179
180
181
182
183
184
185
186
187
188
189
190
191
192
193
194
195
196
197
198
199
200
201
202
203
204
205
206
207
208
209
210
211
212
213
214
215
216
217
218
219
220
221
222
223
224
225
226
227
228
229
230
231
232
233
234
235
236

