%nproc=8
%mem=1000MB
# rb3lyp/6-311+g** NMR geom=connectivity

Title

0 1
C    -4.0500558   -0.5771862    0.8136712
H    -5.0263804   -1.0082727    1.0024760
C    -3.9381552    0.6617804    0.2400876
H    -4.8252424    1.2338890   -0.0111295
C    -2.6768410    1.2433246    0.0057578
C    -1.4974121    0.5051527    0.2848253
C    -1.6508332   -0.7338728    0.9404026
H    -0.7713646   -1.2730967    1.2633753
C    -2.8898548   -1.2624035    1.1994307
H    -2.9683706   -2.2124563    1.7152676
C    -2.5773185    2.5963696   -0.4192930
H    -3.4870728    3.1412239   -0.6474055
C    -1.3741895    3.2147896   -0.4364030
H    -1.2997315    4.2742019   -0.6578144
C    -0.1719488    2.4994090   -0.1734588
C    -0.2043917    1.1018437    0.0192689
C     1.0513491    3.2042560   -0.0676222
H     1.0427344    4.2819499   -0.1896997
C     2.1942091    2.5487446    0.2579577
H     3.1168527    3.0912848    0.4334727
C     2.2216473    1.1336562    0.2934990
C     1.0486931    0.3945528    0.0302412
C     3.4483363    0.4614633    0.5573939
H     4.3095794    1.0606054    0.8334846
C     3.5427346   -0.8855926    0.4749463
H     4.4731467   -1.3939704    0.7038822
C     2.4490052   -1.6474447   -0.0196319
C     1.2150704   -1.0057258   -0.3013573
C     0.2531113   -1.7434440   -1.0216591
H    -0.6541356   -1.2535051   -1.3462847
C     0.4494193   -3.0628597   -1.3413779
H    -0.3083162   -3.5944309   -1.9054060
C     1.6251726   -3.7207967   -0.9552541
H     1.7670048   -4.7687404   -1.1927019
C     2.6109872   -3.0144177   -0.3183050
H     3.5525612   -3.4902813   -0.0646367
Bq         1.9324876835     0.7396397729     0.7525162812
Bq         1.9187238644     0.8444324734     0.8464792910
Bq         1.9476757705     0.8346055032     0.6488300618
Bq         1.9042479113     0.8493459585     0.9453039056
Bq         1.9621517235     0.8296920181     0.5500054472
Bq         1.8897719583     0.8542594436     1.0441285201
Bq         1.9766276765     0.8247785331     0.4511808326
Bq         1.8752960052     0.8591729286     1.1429531347
Bq         1.9911036296     0.8198650480     0.3523562181
Bq         1.8608200522     0.8640864137     1.2417777493
Bq         2.0055795826     0.8149515629     0.2535316035
Bq         1.9331998174     0.8395189883     0.7476546764
Bq         1.9194359983     0.9443116888     0.8416176862
Bq         1.9483879044     0.9344847186     0.6439684570
Bq         1.9049600453     0.9492251739     0.9404423008
Bq         1.9628638574     0.9295712335     0.5451438425
Bq         1.8904840922     0.9541386589     1.0392669154
Bq         1.9773398105     0.9246577484     0.4463192279
Bq         1.8760081392     0.9590521440     1.1380915300
Bq         1.9918157635     0.9197442634     0.3474946133
Bq         1.8615321861     0.9639656291     1.2369161446
Bq         2.0062917166     0.9148307783     0.2486699987
Bq         1.9339119514     0.9393982037     0.7427930716
Bq         1.9201481322     1.0441909041     0.8367560814
Bq         1.9491000383     1.0343639340     0.6391068523
Bq         1.9056721792     1.0491043892     0.9355806960
Bq         1.9635759914     1.0294504489     0.5402822377
Bq         1.8911962262     1.0540178743     1.0344053106
Bq         1.9780519444     1.0245369638     0.4414576231
Bq         1.8767202731     1.0589313594     1.1332299252
Bq         1.9925278975     1.0196234787     0.3426330085
Bq         1.8622443201     1.0638448445     1.2320545398
Bq         2.0070038505     1.0147099936     0.2438083939
Bq         1.9346240853     1.0392774191     0.7379314669
Bq         1.9208602662     1.1440701195     0.8318944767
Bq         1.9498121723     1.1342431494     0.6342452475
Bq         1.9063843131     1.1489836046     0.9307190913
Bq         1.9642881253     1.1293296643     0.5354206329
Bq         1.8919083601     1.1538970897     1.0295437058
Bq         1.9787640784     1.1244161792     0.4365960183
Bq         1.8774324071     1.1588105748     1.1283683204
Bq         1.9932400314     1.1195026941     0.3377714038
Bq         1.8629564540     1.1637240599     1.2271929350
Bq         2.0077159845     1.1145892090     0.2389467892
Bq         1.9353362192     1.1391566344     0.7330698621
Bq         1.9215724001     1.2439493349     0.8270328719
Bq         1.9505243062     1.2341223647     0.6293836427
Bq         1.9070964471     1.2488628200     0.9258574865
Bq         1.9650002593     1.2292088797     0.5305590282
Bq         1.8926204940     1.2537763051     1.0246821011
Bq         1.9794762123     1.2242953946     0.4317344136
Bq         1.8781445410     1.2586897901     1.1235067157
Bq         1.9939521654     1.2193819095     0.3329097990
Bq         1.8636685880     1.2636032752     1.2223313303
Bq         2.0084281184     1.2144684244     0.2340851844
Bq         1.9360483532     1.2390358498     0.7282082573
Bq         1.9222845341     1.3438285503     0.8221712671
Bq         1.9512364402     1.3340015801     0.6245220380
Bq         1.9078085810     1.3487420354     0.9209958817
Bq         1.9657123932     1.3290880950     0.5256974234
Bq         1.8933326280     1.3536555204     1.0198204963
Bq         1.9801883463     1.3241746099     0.4268728088
Bq         1.8788566749     1.3585690055     1.1186451109
Bq         1.9946642993     1.3192611249     0.3280481942
Bq         1.8643807219     1.3634824906     1.2174697255
Bq         2.0091402523     1.3143476398     0.2292235796
Bq         1.9367604871     1.3389150652     0.7233466526
Bq         1.9229966680     1.4437077657     0.8173096624
Bq         1.9519485741     1.4338807955     0.6196604332
Bq         1.9085207150     1.4486212507     0.9161342770
Bq         1.9664245271     1.4289673104     0.5208358186
Bq         1.8940447619     1.4535347358     1.0149588915
Bq         1.9809004802     1.4240538253     0.4220112040
Bq         1.8795688089     1.4584482209     1.1137835061
Bq         1.9953764332     1.4191403402     0.3231865895
Bq         1.8650928558     1.4633617060     1.2126081207
Bq         2.0098523863     1.4142268552     0.2243619749
Bq         1.9374726211     1.4387942806     0.7184850478
Bq         1.9237088020     1.5435869810     0.8124480576
Bq         1.9526607080     1.5337600109     0.6147988284
Bq         1.9092328489     1.5485004661     0.9112726722
Bq         1.9671366611     1.5288465258     0.5159742139
Bq         1.8947568959     1.5534139512     1.0100972868
Bq         1.9816126141     1.5239330407     0.4171495993
Bq         1.8802809428     1.5583274363     1.1089219014
Bq         1.9960885672     1.5190195556     0.3183249847
Bq         1.8658049898     1.5632409214     1.2077465160
Bq         2.0105645202     1.5141060705     0.2195003701
Bq         1.9381847550     1.5386734959     0.7136234430
Bq         1.9244209359     1.6434661964     0.8075864528
Bq         1.9533728420     1.6336392262     0.6099372237
Bq         1.9099449829     1.6483796815     0.9064110674
Bq         1.9678487950     1.6287257412     0.5111126091
Bq         1.8954690298     1.6532931666     1.0052356820
Bq         1.9823247481     1.6238122561     0.4122879945
Bq         1.8809930768     1.6582066517     1.1040602966
Bq         1.9968007011     1.6188987710     0.3134633799
Bq         1.8665171237     1.6631201367     1.2028849112
Bq         2.0112766542     1.6139852859     0.2146387653
Bq         1.9388968889     1.6385527113     0.7087618383
Bq         1.9251330698     1.7433454118     0.8027248481
Bq         1.9540849759     1.7335184416     0.6050756189
Bq         1.9106571168     1.7482588969     0.9015494627
Bq         1.9685609290     1.7286049565     0.5062510043
Bq         1.8961811638     1.7531723819     1.0003740772
Bq         1.9830368820     1.7236914715     0.4074263897
Bq         1.8817052107     1.7580858670     1.0991986918
Bq         1.9975128351     1.7187779864     0.3086017752
Bq         1.8672292577     1.7629993521     1.1980233064
Bq         2.0119887881     1.7138645013     0.2097771606
Bq         1.9396090229     1.7384319267     0.7039002335
Bq         1.9258452038     1.8432246272     0.7978632433
Bq         1.9547971099     1.8333976570     0.6002140141
Bq         1.9113692507     1.8481381122     0.8966878579
Bq         1.9692730629     1.8284841719     0.5013893996
Bq         1.8968932977     1.8530515973     0.9955124725
Bq         1.9837490160     1.8235706868     0.4025647850
Bq         1.8824173447     1.8579650824     1.0943370871
Bq         1.9982249690     1.8186572017     0.3037401704
Bq         1.8679413916     1.8628785675     1.1931617017
Bq         2.0127009220     1.8137437167     0.2049155558
Bq         1.9403211568     1.8383111421     0.6990386287
Bq         1.9265573377     1.9431038425     0.7930016385
Bq         1.9555092438     1.9332768724     0.5953524094
Bq         1.9120813847     1.9480173276     0.8918262531
Bq         1.9699851969     1.9283633873     0.4965277948
Bq         1.8976054316     1.9529308127     0.9906508677
Bq         1.9844611499     1.9234499022     0.3977031802
Bq         1.8831294786     1.9578442978     1.0894754823
Bq         1.9989371029     1.9185364171     0.2988785656
Bq         1.8686535255     1.9627577829     1.1883000969
Bq         2.0134130560     1.9136229320     0.2000539510
Bq         1.9410332908     1.9381903575     0.6941770240
Bq         1.9272694717     2.0429830579     0.7881400338
Bq         1.9562213778     2.0331560878     0.5904908046
Bq         1.9127935186     2.0478965430     0.8869646484
Bq         1.9706973308     2.0282426027     0.4916661900
Bq         1.8983175656     2.0528100281     0.9857892630
Bq         1.9851732838     2.0233291176     0.3928415754
Bq         1.8838416125     2.0577235132     1.0846138775
Bq         1.9996492369     2.0184156325     0.2940169609
Bq         1.8693656595     2.0626369982     1.1834384921
Bq         2.0141251899     2.0135021474     0.1951923463
Bq         1.9417454247     2.0380695728     0.6893154192
Bq         1.9279816056     2.1428622733     0.7832784290
Bq         1.9569335117     2.1330353031     0.5856291998
Bq         1.9135056526     2.1477757584     0.8821030436
Bq         1.9714094647     2.1281218180     0.4868045853
Bq         1.8990296995     2.1526892435     0.9809276582
Bq         1.9858854178     2.1232083330     0.3879799707
Bq         1.8845537465     2.1576027285     1.0797522728
Bq         2.0003613708     2.1182948479     0.2891553561
Bq         1.8700777934     2.1625162136     1.1785768874
Bq         2.0148373239     2.1133813628     0.1903307415
Bq         1.9424575587     2.1379487882     0.6844538144
Bq         1.9286937395     2.2427414887     0.7784168242
Bq         1.9576456456     2.2329145185     0.5807675951
Bq         1.9142177865     2.2476549738     0.8772414388
Bq         1.9721215987     2.2280010334     0.4819429805
Bq         1.8997418335     2.2525684588     0.9760660534
Bq         1.9865975517     2.2230875483     0.3831183659
Bq         1.8852658804     2.2574819439     1.0748906680
Bq         2.0010735048     2.2181740633     0.2842937513
Bq         1.8707899274     2.2623954290     1.1737152826
Bq         2.0155494578     2.2132605782     0.1854691367
Bq         1.9431696926     2.2378280036     0.6795922097
Bq         1.9294058735     2.3426207040     0.7735552195
Bq         1.9583577796     2.3327937339     0.5759059903
Bq         1.9149299204     2.3475341891     0.8723798341
Bq         1.9728337326     2.3278802488     0.4770813757
Bq         1.9004539674     2.3524476742     0.9712044487
Bq         1.9873096857     2.3229667637     0.3782567611
Bq         1.8859780144     2.3573611593     1.0700290632
Bq         2.0017856387     2.3180532786     0.2794321466
Bq         1.8715020613     2.3622746444     1.1688536778
Bq         2.0162615918     2.3131397936     0.1806075320
Bq         1.9438818265     2.3377072190     0.6747306049
Bq         1.9301180074     2.4424999194     0.7686936147
Bq         1.9590699135     2.4326729493     0.5710443855
Bq         1.9156420544     2.4474134045     0.8675182293
Bq         1.9735458666     2.4277594642     0.4722197710
Bq         1.9011661013     2.4523268896     0.9663428439
Bq         1.9880218196     2.4228459791     0.3733951564
Bq         1.8866901483     2.4572403747     1.0651674585
Bq         2.0024977727     2.4179324940     0.2745705418
Bq         1.8722141953     2.4621538598     1.1639920731
Bq         2.0169737257     2.4130190089     0.1757459272
Bq         1.9445939605     2.4375864343     0.6698690001
Bq         1.9308301414     2.5423791348     0.7638320099
Bq         1.9597820475     2.5325521646     0.5661827808
Bq         1.9163541883     2.5472926199     0.8626566245
Bq         1.9742580005     2.5276386796     0.4673581662
Bq         1.9018782353     2.5522061050     0.9614812391
Bq         1.9887339536     2.5227251945     0.3685335516
Bq         1.8874022822     2.5571195900     1.0603058537
Bq         2.0032099066     2.5178117094     0.2697089370
Bq         1.8729263292     2.5620330751     1.1591304683
Bq         2.0176858596     2.5128982243     0.1708843224
Bq         1.9453060944     2.5374656497     0.6650073954
Bq         1.9315422753     2.6422583502     0.7589704052

1
2
3
4
5
6
7
8
9
10
11
12
13
14
15
16
17
18
19
20
21
22
23
24
25
26
27
28
29
30
31
32
33
34
35
36
37
38
39
40
41
42
43
44
45
46
47
48
49
50
51
52
53
54
55
56
57
58
59
60
61
62
63
64
65
66
67
68
69
70
71
72
73
74
75
76
77
78
79
80
81
82
83
84
85
86
87
88
89
90
91
92
93
94
95
96
97
98
99
100
101
102
103
104
105
106
107
108
109
110
111
112
113
114
115
116
117
118
119
120
121
122
123
124
125
126
127
128
129
130
131
132
133
134
135
136
137
138
139
140
141
142
143
144
145
146
147
148
149
150
151
152
153
154
155
156
157
158
159
160
161
162
163
164
165
166
167
168
169
170
171
172
173
174
175
176
177
178
179
180
181
182
183
184
185
186
187
188
189
190
191
192
193
194
195
196
197
198
199
200
201
202
203
204
205
206
207
208
209
210
211
212
213
214
215
216
217
218
219
220
221
222
223
224
225
226
227
228
229
230
231
232
233
234
235
236

