%nproc=8
%mem=1000MB
# rb3lyp/6-311+g** NMR geom=connectivity

Title

0 1
C    -4.0500558   -0.5771862    0.8136712
H    -5.0263804   -1.0082727    1.0024760
C    -3.9381552    0.6617804    0.2400876
H    -4.8252424    1.2338890   -0.0111295
C    -2.6768410    1.2433246    0.0057578
C    -1.4974121    0.5051527    0.2848253
C    -1.6508332   -0.7338728    0.9404026
H    -0.7713646   -1.2730967    1.2633753
C    -2.8898548   -1.2624035    1.1994307
H    -2.9683706   -2.2124563    1.7152676
C    -2.5773185    2.5963696   -0.4192930
H    -3.4870728    3.1412239   -0.6474055
C    -1.3741895    3.2147896   -0.4364030
H    -1.2997315    4.2742019   -0.6578144
C    -0.1719488    2.4994090   -0.1734588
C    -0.2043917    1.1018437    0.0192689
C     1.0513491    3.2042560   -0.0676222
H     1.0427344    4.2819499   -0.1896997
C     2.1942091    2.5487446    0.2579577
H     3.1168527    3.0912848    0.4334727
C     2.2216473    1.1336562    0.2934990
C     1.0486931    0.3945528    0.0302412
C     3.4483363    0.4614633    0.5573939
H     4.3095794    1.0606054    0.8334846
C     3.5427346   -0.8855926    0.4749463
H     4.4731467   -1.3939704    0.7038822
C     2.4490052   -1.6474447   -0.0196319
C     1.2150704   -1.0057258   -0.3013573
C     0.2531113   -1.7434440   -1.0216591
H    -0.6541356   -1.2535051   -1.3462847
C     0.4494193   -3.0628597   -1.3413779
H    -0.3083162   -3.5944309   -1.9054060
C     1.6251726   -3.7207967   -0.9552541
H     1.7670048   -4.7687404   -1.1927019
C     2.6109872   -3.0144177   -0.3183050
H     3.5525612   -3.4902813   -0.0646367
Bq         0.2295065643    -0.0761335637     1.2620616778
Bq         0.2525584522    -0.2234294679     0.6808796693
Bq         0.2256645829    -0.0515842463     1.3589253459
Bq         0.2564004336    -0.2479787853     0.5840160012
Bq         0.2218226016    -0.0270349289     1.4557890140
Bq         0.2602424149    -0.2725281027     0.4871523331
Bq         0.2410325082    -0.1497815158     0.9714706735
Bq         0.2381634811    -0.0282923665     1.0438043122
Bq         0.2458474438    -0.0773910012     0.8500769760
Bq         0.2343214998    -0.0037430491     1.1406679803
Bq         0.2496894251    -0.1019403186     0.7532133079
Bq         0.2304795185     0.0208062683     1.2375316484
Bq         0.2535314065    -0.1264896360     0.6563496398
Bq         0.2266375372     0.0453555857     1.3343953165
Bq         0.2573733878    -0.1510389533     0.5594859717
Bq         0.2227955558     0.0699049030     1.4312589846
Bq         0.2612153691    -0.1755882707     0.4626223037
Bq         0.2420054625    -0.0528416838     0.9469406441
Bq         0.2391364354     0.0686474655     1.0192742828
Bq         0.2468203980     0.0195488307     0.8255469466
Bq         0.2352944540     0.0931967828     1.1161379509
Bq         0.2506623794    -0.0050004867     0.7286832785
Bq         0.2314524727     0.1177461002     1.2130016190
Bq         0.2545043607    -0.0295498040     0.6318196104
Bq         0.2276104914     0.1422954176     1.3098652870
Bq         0.2583463420    -0.0540991214     0.5349559423
Bq         0.2237685100     0.1668447350     1.4067289551
Bq         0.2621883233    -0.0786484388     0.4380922742
Bq         0.2429784167     0.0440981481     0.9224106147
Bq         0.2401093896     0.1655872974     0.9947442533
Bq         0.2477933522     0.1164886627     0.8010169172
Bq         0.2362674083     0.1901366148     1.0916079214
Bq         0.2516353336     0.0919393453     0.7041532491
Bq         0.2324254269     0.2146859322     1.1884715895
Bq         0.2554773149     0.0673900279     0.6072895810
Bq         0.2285834456     0.2392352495     1.2853352576
Bq         0.2593192962     0.0428407105     0.5104259129
Bq         0.2247414643     0.2637845669     1.3821989257
Bq         0.2631612776     0.0182913932     0.4135622448
Bq         0.2439513709     0.1410379800     0.8978805853
Bq         0.2410823438     0.2625271294     0.9702142239
Bq         0.2487663065     0.2134284946     0.7764868877
Bq         0.2372403625     0.2870764467     1.0670778920
Bq         0.2526082878     0.1888791772     0.6796232196
Bq         0.2333983812     0.3116257641     1.1639415601
Bq         0.2564502691     0.1643298598     0.5827595516
Bq         0.2295563998     0.3361750815     1.2608052282
Bq         0.2602922505     0.1397805425     0.4858958835
Bq         0.2257144185     0.3607243989     1.3576688963
Bq         0.2641342318     0.1152312251     0.3890322154
Bq         0.2449243251     0.2379778120     0.8733505558
Bq         0.2420552980     0.3594669613     0.9456841945
Bq         0.2497392607     0.3103683265     0.7519568583
Bq         0.2382133167     0.3840162787     1.0425478626
Bq         0.2535812420     0.2858190092     0.6550931902
Bq         0.2343713354     0.4085655960     1.1394115307
Bq         0.2574232234     0.2612696918     0.5582295221
Bq         0.2305293540     0.4331149134     1.2362751988
Bq         0.2612652047     0.2367203744     0.4613658540
Bq         0.2266873727     0.4576642308     1.3331388669
Bq         0.2651071860     0.2121710570     0.3645021860
Bq         0.2458972794     0.3349176439     0.8488205264
Bq         0.2430282523     0.4564067932     0.9211541651
Bq         0.2507122149     0.4073081585     0.7274268289
Bq         0.2391862709     0.4809561106     1.0180178332
Bq         0.2545541962     0.3827588411     0.6305631608
Bq         0.2353442896     0.5055054280     1.1148815012
Bq         0.2583961776     0.3582095237     0.5336994927
Bq         0.2315023083     0.5300547454     1.2117451693
Bq         0.2622381589     0.3336602064     0.4368358246
Bq         0.2276603269     0.5546040627     1.3086088374
Bq         0.2660801402     0.3091108890     0.3399721565
Bq         0.2468702336     0.4318574759     0.8242904970
Bq         0.2440012065     0.5533466252     0.8966241356
Bq         0.2516851691     0.5042479904     0.7028967995
Bq         0.2401592252     0.5778959425     0.9934878037
Bq         0.2555271505     0.4796986730     0.6060331314
Bq         0.2363172438     0.6024452599     1.0903514718
Bq         0.2593691318     0.4551493557     0.5091694633
Bq         0.2324752625     0.6269945773     1.1872151399
Bq         0.2632111131     0.4306000383     0.4123057952
Bq         0.2286332812     0.6515438947     1.2840788080
Bq         0.2670530945     0.4060507209     0.3154421271
Bq         0.2478431878     0.5287973078     0.7997604675
Bq         0.2449741607     0.6502864571     0.8720941062
Bq         0.2526581234     0.6011878224     0.6783667700
Bq         0.2411321794     0.6748357745     0.9689577743
Bq         0.2565001047     0.5766385050     0.5815031019
Bq         0.2372901981     0.6993850919     1.0658214424
Bq         0.2603420860     0.5520891876     0.4846394338
Bq         0.2334482167     0.7239344092     1.1626851105
Bq         0.2641840674     0.5275398702     0.3877757658
Bq         0.2296062354     0.7484837266     1.2595487786
Bq         0.2680260487     0.5029905529     0.2909120977
Bq         0.2488161420     0.6257371397     0.7752304381
Bq         0.2459471149     0.7472262890     0.8475640768
Bq         0.2536310776     0.6981276543     0.6538367406
Bq         0.2421051336     0.7717756064     0.9444277449
Bq         0.2574730589     0.6735783369     0.5569730725
Bq         0.2382631523     0.7963249238     1.0412914130
Bq         0.2613150403     0.6490290195     0.4601094044
Bq         0.2344211709     0.8208742412     1.1381550811
Bq         0.2651570216     0.6244797022     0.3632457363
Bq         0.2305791896     0.8454235585     1.2350187491
Bq         0.2689990029     0.5999303848     0.2663820682
Bq         0.2497890963     0.7226769717     0.7507004087
Bq         0.2469200692     0.8441661210     0.8230340474
Bq         0.2546040318     0.7950674862     0.6293067112
Bq         0.2430780878     0.8687154384     0.9198977154
Bq         0.2584460131     0.7705181689     0.5324430431
Bq         0.2392361065     0.8932647557     1.0167613835
Bq         0.2622879945     0.7459688515     0.4355793750
Bq         0.2353941252     0.9178140731     1.1136250516
Bq         0.2661299758     0.7214195341     0.3387157069
Bq         0.2315521438     0.9423633905     1.2104887197
Bq         0.2699719571     0.6968702167     0.2418520388
Bq         0.2507620505     0.8196168036     0.7261703793
Bq         0.2478930234     0.9411059529     0.7985040179
Bq         0.2555769860     0.8920073182     0.6047766817
Bq         0.2440510421     0.9656552703     0.8953676860
Bq         0.2594189674     0.8674580008     0.5079130137
Bq         0.2402090607     0.9902045877     0.9922313541
Bq         0.2632609487     0.8429086834     0.4110493456
Bq         0.2363670794     1.0147539051     1.0890950222
Bq         0.2671029300     0.8183593660     0.3141856775
Bq         0.2325250981     1.0393032224     1.1859586903
Bq         0.2709449114     0.7938100487     0.2173220094
Bq         0.2517350047     0.9165566355     0.7016403498
Bq         0.2488659776     1.0380457849     0.7739739885
Bq         0.2565499403     0.9889471501     0.5802466523
Bq         0.2450239963     1.0625951022     0.8708376566
Bq         0.2603919216     0.9643978327     0.4833829842
Bq         0.2411820149     1.0871444196     0.9677013247
Bq         0.2642339029     0.9398485154     0.3865193161
Bq         0.2373400336     1.1116937370     1.0645649928
Bq         0.2680758843     0.9152991980     0.2896556481
Bq         0.2334980523     1.1362430544     1.1614286609
Bq         0.2719178656     0.8907498806     0.1927919800
Bq         0.2527079589     1.0134964675     0.6771103204
Bq         0.2498389318     1.1349856168     0.7494439591
Bq         0.2575228945     1.0858869821     0.5557166229
Bq         0.2459969505     1.1595349342     0.8463076272
Bq         0.2613648758     1.0613376647     0.4588529548
Bq         0.2421549692     1.1840842516     0.9431712953
Bq         0.2652068571     1.0367883473     0.3619892867
Bq         0.2383129878     1.2086335689     1.0400349633
Bq         0.2690488385     1.0122390299     0.2651256186
Bq         0.2344710065     1.2331828863     1.1368986314
Bq         0.2728908198     0.9876897125     0.1682619505
Bq         0.2536809132     1.1104362994     0.6525802910
Bq         0.2508118861     1.2319254487     0.7249139296
Bq         0.2584958487     1.1828268140     0.5311865935
Bq         0.2469699047     1.2564747661     0.8217775977
Bq         0.2623378300     1.1582774966     0.4343229254
Bq         0.2431279234     1.2810240835     0.9186412658
Bq         0.2661798114     1.1337281792     0.3374592573
Bq         0.2392859421     1.3055734009     1.0155049339
Bq         0.2700217927     1.1091788619     0.2405955892
Bq         0.2354439607     1.3301227182     1.1123686020
Bq         0.2738637740     1.0846295445     0.1437319211
Bq         0.2546538674     1.2073761314     0.6280502616
Bq         0.2517848403     1.3288652807     0.7003839002
Bq         0.2594688029     1.2797666459     0.5066565640
Bq         0.2479428590     1.3534145981     0.7972475683
Bq         0.2633107843     1.2552173286     0.4097928959
Bq         0.2441008776     1.3779639154     0.8941112364
Bq         0.2671527656     1.2306680112     0.3129292279
Bq         0.2402588963     1.4025132328     0.9909749045
Bq         0.2709947469     1.2061186938     0.2160655598
Bq         0.2364169150     1.4270625502     1.0878385726
Bq         0.2748367283     1.1815693764     0.1192018917
Bq         0.2556268216     1.3043159633     0.6035202321
Bq         0.2527577945     1.4258051126     0.6758538708
Bq         0.2604417572     1.3767064779     0.4821265346
Bq         0.2489158132     1.4503544300     0.7727175389
Bq         0.2642837385     1.3521571605     0.3852628665
Bq         0.2450738318     1.4749037474     0.8695812070
Bq         0.2681257198     1.3276078431     0.2883991984
Bq         0.2412318505     1.4994530647     0.9664448751
Bq         0.2719677012     1.3030585257     0.1915355303
Bq         0.2373898692     1.5240023821     1.0633085432
Bq         0.2758096825     1.2785092084     0.0946718623
Bq         0.2565997758     1.4012557952     0.5789902027
Bq         0.2537307487     1.5227449446     0.6513238414
Bq         0.2614147114     1.4736463098     0.4575965052
Bq         0.2498887674     1.5472942619     0.7481875095
Bq         0.2652566927     1.4490969924     0.3607328371
Bq         0.2460467861     1.5718435793     0.8450511775
Bq         0.2690986740     1.4245476751     0.2638691690
Bq         0.2422048047     1.5963928967     0.9419148456
Bq         0.2729406554     1.3999983577     0.1670055009
Bq         0.2383628234     1.6209422141     1.0387785137
Bq         0.2767826367     1.3754490403     0.0701418328
Bq         0.2575727301     1.4981956272     0.5544601733
Bq         0.2547037030     1.6196847765     0.6267938119
Bq         0.2623876656     1.5705861417     0.4330664758
Bq         0.2508617216     1.6442340939     0.7236574800
Bq         0.2662296469     1.5460368244     0.3362028077
Bq         0.2470197403     1.6687834113     0.8205211481
Bq         0.2700716283     1.5214875070     0.2393391396

1
2
3
4
5
6
7
8
9
10
11
12
13
14
15
16
17
18
19
20
21
22
23
24
25
26
27
28
29
30
31
32
33
34
35
36
37
38
39
40
41
42
43
44
45
46
47
48
49
50
51
52
53
54
55
56
57
58
59
60
61
62
63
64
65
66
67
68
69
70
71
72
73
74
75
76
77
78
79
80
81
82
83
84
85
86
87
88
89
90
91
92
93
94
95
96
97
98
99
100
101
102
103
104
105
106
107
108
109
110
111
112
113
114
115
116
117
118
119
120
121
122
123
124
125
126
127
128
129
130
131
132
133
134
135
136
137
138
139
140
141
142
143
144
145
146
147
148
149
150
151
152
153
154
155
156
157
158
159
160
161
162
163
164
165
166
167
168
169
170
171
172
173
174
175
176
177
178
179
180
181
182
183
184
185
186
187
188
189
190
191
192
193
194
195
196
197
198
199
200
201
202
203
204
205
206
207
208
209
210
211
212
213
214
215
216
217
218
219
220
221
222
223
224
225
226
227
228
229
230
231
232
233
234
235
236

