%nproc=8
%mem=1000MB
# rb3lyp/6-311+g** NMR geom=connectivity

Title

0 1
C    -4.0500558   -0.5771862    0.8136712
H    -5.0263804   -1.0082727    1.0024760
C    -3.9381552    0.6617804    0.2400876
H    -4.8252424    1.2338890   -0.0111295
C    -2.6768410    1.2433246    0.0057578
C    -1.4974121    0.5051527    0.2848253
C    -1.6508332   -0.7338728    0.9404026
H    -0.7713646   -1.2730967    1.2633753
C    -2.8898548   -1.2624035    1.1994307
H    -2.9683706   -2.2124563    1.7152676
C    -2.5773185    2.5963696   -0.4192930
H    -3.4870728    3.1412239   -0.6474055
C    -1.3741895    3.2147896   -0.4364030
H    -1.2997315    4.2742019   -0.6578144
C    -0.1719488    2.4994090   -0.1734588
C    -0.2043917    1.1018437    0.0192689
C     1.0513491    3.2042560   -0.0676222
H     1.0427344    4.2819499   -0.1896997
C     2.1942091    2.5487446    0.2579577
H     3.1168527    3.0912848    0.4334727
C     2.2216473    1.1336562    0.2934990
C     1.0486931    0.3945528    0.0302412
C     3.4483363    0.4614633    0.5573939
H     4.3095794    1.0606054    0.8334846
C     3.5427346   -0.8855926    0.4749463
H     4.4731467   -1.3939704    0.7038822
C     2.4490052   -1.6474447   -0.0196319
C     1.2150704   -1.0057258   -0.3013573
C     0.2531113   -1.7434440   -1.0216591
H    -0.6541356   -1.2535051   -1.3462847
C     0.4494193   -3.0628597   -1.3413779
H    -0.3083162   -3.5944309   -1.9054060
C     1.6251726   -3.7207967   -0.9552541
H     1.7670048   -4.7687404   -1.1927019
C     2.6109872   -3.0144177   -0.3183050
H     3.5525612   -3.4902813   -0.0646367
Bq         1.2719879366    -3.1570645385    -0.0615258674
Bq         1.5111585193    -2.9973706318    -0.5881142157
Bq         1.2321261728    -3.1836801896     0.0262388573
Bq         1.5510202831    -2.9707549807    -0.6758789404
Bq         1.1922644090    -3.2102958407     0.1140035820
Bq         1.5908820469    -2.9441393296    -0.7636436651
Bq         1.3915732279    -3.0772175851    -0.3248200416
Bq         1.3407049908    -3.0074402535    -0.2128220664
Bq         1.4204285184    -2.9542089513    -0.3883515158
Bq         1.3008432270    -3.0340559046    -0.1250573417
Bq         1.4602902821    -2.9275933002    -0.4761162405
Bq         1.2609814632    -3.0606715558    -0.0372926170
Bq         1.5001520459    -2.9009776491    -0.5638809652
Bq         1.2211196994    -3.0872872069     0.0504721078
Bq         1.5400138097    -2.8743619980    -0.6516456899
Bq         1.1812579356    -3.1139028580     0.1382368325
Bq         1.5798755735    -2.8477463469    -0.7394104147
Bq         1.3805667546    -2.9808246024    -0.3005867911
Bq         1.3296985174    -2.9110472708    -0.1885888159
Bq         1.4094220450    -2.8578159686    -0.3641182654
Bq         1.2898367536    -2.9376629219    -0.1008240912
Bq         1.4492838088    -2.8312003175    -0.4518829901
Bq         1.2499749898    -2.9642785730    -0.0130593665
Bq         1.4891455726    -2.8045846664    -0.5396477148
Bq         1.2101132260    -2.9908942241     0.0747053582
Bq         1.5290073363    -2.7779690153    -0.6274124395
Bq         1.1702514623    -3.0175098753     0.1624700829
Bq         1.5688691001    -2.7513533642    -0.7151771642
Bq         1.3695602812    -2.8844316197    -0.2763535406
Bq         1.3186920440    -2.8146542881    -0.1643555655
Bq         1.3984155716    -2.7614229859    -0.3398850149
Bq         1.2788302803    -2.8412699392    -0.0765908408
Bq         1.4382773354    -2.7348073348    -0.4276497396
Bq         1.2389685165    -2.8678855903     0.0111738840
Bq         1.4781390992    -2.7081916837    -0.5154144643
Bq         1.1991067527    -2.8945012414     0.0989386087
Bq         1.5180008630    -2.6815760326    -0.6031791890
Bq         1.1592449889    -2.9211168925     0.1867033334
Bq         1.5578626268    -2.6549603815    -0.6909439137
Bq         1.3585538078    -2.7880386370    -0.2521202902
Bq         1.3076855707    -2.7182613054    -0.1401223150
Bq         1.3874090982    -2.6650300032    -0.3156517644
Bq         1.2678238069    -2.7448769565    -0.0523575903
Bq         1.4272708620    -2.6384143521    -0.4034164891
Bq         1.2279620431    -2.7714926076     0.0354071344
Bq         1.4671326258    -2.6117987010    -0.4911812139
Bq         1.1881002793    -2.7981082587     0.1231718591
Bq         1.5069943896    -2.5851830499    -0.5789459386
Bq         1.1482385155    -2.8247239098     0.2109365838
Bq         1.5468561534    -2.5585673988    -0.6667106633
Bq         1.3475473345    -2.6916456543    -0.2278870397
Bq         1.2966790973    -2.6218683227    -0.1158890646
Bq         1.3764026249    -2.5686370205    -0.2914185140
Bq         1.2568173335    -2.6484839738    -0.0281243398
Bq         1.4162643887    -2.5420213694    -0.3791832387
Bq         1.2169555697    -2.6750996249     0.0596403849
Bq         1.4561261524    -2.5154057183    -0.4669479634
Bq         1.1770938059    -2.7017152760     0.1474051096
Bq         1.4959879162    -2.4887900672    -0.5547126881
Bq         1.1372320421    -2.7283309271     0.2351698343
Bq         1.5358496800    -2.4621744160    -0.6424774128
Bq         1.3365408611    -2.5952526716    -0.2036537893
Bq         1.2856726239    -2.5254753400    -0.0916558141
Bq         1.3653961515    -2.4722440378    -0.2671852635
Bq         1.2458108601    -2.5520909911    -0.0038910894
Bq         1.4052579153    -2.4456283867    -0.3549499882
Bq         1.2059490963    -2.5787066422     0.0838736353
Bq         1.4451196791    -2.4190127355    -0.4427147129
Bq         1.1660873326    -2.6053222933     0.1716383600
Bq         1.4849814429    -2.3923970844    -0.5304794377
Bq         1.1262255688    -2.6319379444     0.2594030848
Bq         1.5248432066    -2.3657814333    -0.6182441624
Bq         1.3255343877    -2.4988596889    -0.1794205388
Bq         1.2746661505    -2.4290823573    -0.0674225636
Bq         1.3543896781    -2.3758510550    -0.2429520131
Bq         1.2348043868    -2.4556980084     0.0203421611
Bq         1.3942514419    -2.3492354039    -0.3307167378
Bq         1.1949426230    -2.4823136595     0.1081068858
Bq         1.4341132057    -2.3226197528    -0.4184814625
Bq         1.1550808592    -2.5089293106     0.1958716105
Bq         1.4739749695    -2.2960041017    -0.5062461872
Bq         1.1152190954    -2.5355449617     0.2836363352
Bq         1.5138367333    -2.2693884506    -0.5940109119
Bq         1.3145279143    -2.4024667062    -0.1551872884
Bq         1.2636596772    -2.3326893746    -0.0431893132
Bq         1.3433832048    -2.2794580723    -0.2187187626
Bq         1.2237979134    -2.3593050257     0.0445754115
Bq         1.3832449685    -2.2528424212    -0.3064834873
Bq         1.1839361496    -2.3859206768     0.1323401362
Bq         1.4231067323    -2.2262267701    -0.3942482120
Bq         1.1440743858    -2.4125363279     0.2201048610
Bq         1.4629684961    -2.1996111190    -0.4820129367
Bq         1.1042126220    -2.4391519790     0.3078695857
Bq         1.5028302599    -2.1729954679    -0.5697776615
Bq         1.3035214410    -2.3060737234    -0.1309540379
Bq         1.2526532038    -2.2362963918    -0.0189560627
Bq         1.3323767314    -2.1830650896    -0.1944855121
Bq         1.2127914400    -2.2629120429     0.0688086620
Bq         1.3722384952    -2.1564494385    -0.2822502369
Bq         1.1729296762    -2.2895276941     0.1565733867
Bq         1.4121002590    -2.1298337874    -0.3700149616
Bq         1.1330679124    -2.3161433452     0.2443381114
Bq         1.4519620227    -2.1032181363    -0.4577796863
Bq         1.0932061487    -2.3427589963     0.3321028361
Bq         1.4918237865    -2.0766024852    -0.5455444110
Bq         1.2925149676    -2.2096807407    -0.1067207874
Bq         1.2416467304    -2.1399034091     0.0052771877
Bq         1.3213702580    -2.0866721069    -0.1702522617
Bq         1.2017849666    -2.1665190602     0.0930419124
Bq         1.3612320218    -2.0600564558    -0.2580169864
Bq         1.1619232029    -2.1931347113     0.1808066372
Bq         1.4010937856    -2.0334408047    -0.3457817111
Bq         1.1220614391    -2.2197503624     0.2685713619
Bq         1.4409555494    -2.0068251536    -0.4335464358
Bq         1.0821996753    -2.2463660136     0.3563360866
Bq         1.4808173132    -1.9802095025    -0.5213111605
Bq         1.2815084942    -2.1132877580    -0.0824875370
Bq         1.2306402571    -2.0435104264     0.0295104382
Bq         1.3103637846    -1.9902791242    -0.1460190112
Bq         1.1907784933    -2.0701260775     0.1172751629
Bq         1.3502255484    -1.9636634731    -0.2337837359
Bq         1.1509167295    -2.0967417286     0.2050398876
Bq         1.3900873122    -1.9370478220    -0.3215484607
Bq         1.1110549657    -2.1233573797     0.2928046123
Bq         1.4299490760    -1.9104321709    -0.4093131854
Bq         1.0711932019    -2.1499730308     0.3805693370
Bq         1.4698108398    -1.8838165198    -0.4970779101
Bq         1.2705020208    -2.0168947753    -0.0582542865
Bq         1.2196337837    -1.9471174437     0.0537436887
Bq         1.2993573113    -1.8938861415    -0.1217857608
Bq         1.1797720199    -1.9737330948     0.1415084134
Bq         1.3392190751    -1.8672704904    -0.2095504855
Bq         1.1399102561    -2.0003487459     0.2292731381
Bq         1.3790808388    -1.8406548393    -0.2973152102
Bq         1.1000484923    -2.0269643970     0.3170378628
Bq         1.4189426026    -1.8140391882    -0.3850799349
Bq         1.0601867285    -2.0535800481     0.4048025875
Bq         1.4588043664    -1.7874235371    -0.4728446596
Bq         1.2594955475    -1.9205017926    -0.0340210361
Bq         1.2086273103    -1.8507244610     0.0779769391
Bq         1.2883508379    -1.7974931588    -0.0975525103
Bq         1.1687655465    -1.8773401121     0.1657416638
Bq         1.3282126017    -1.7708775077    -0.1853172350
Bq         1.1289037827    -1.9039557632     0.2535063885
Bq         1.3680743655    -1.7442618566    -0.2730819597
Bq         1.0890420190    -1.9305714143     0.3412711132
Bq         1.4079361293    -1.7176462055    -0.3608466845
Bq         1.0491802552    -1.9571870654     0.4290358380
Bq         1.4477978930    -1.6910305543    -0.4486114092
Bq         1.2484890741    -1.8241088099    -0.0097877856
Bq         1.1976208369    -1.7543314783     0.1022101896
Bq         1.2773443645    -1.7011001761    -0.0733192599
Bq         1.1577590732    -1.7809471294     0.1899749143
Bq         1.3172061283    -1.6744845250    -0.1610839846
Bq         1.1178973094    -1.8075627805     0.2777396390
Bq         1.3570678921    -1.6478688739    -0.2488487093
Bq         1.0780355456    -1.8341784316     0.3655043637
Bq         1.3969296559    -1.6212532227    -0.3366134340
Bq         1.0381737818    -1.8607940827     0.4532690884
Bq         1.4367914197    -1.5946375716    -0.4243781587
Bq         1.2374826007    -1.7277158272     0.0144454649
Bq         1.1866143636    -1.6579384956     0.1264434400
Bq         1.2663378911    -1.6047071934    -0.0490860094
Bq         1.1467525998    -1.6845541467     0.2142081647
Bq         1.3061996549    -1.5780915422    -0.1368507341
Bq         1.1068908360    -1.7111697978     0.3019728895
Bq         1.3460614187    -1.5514758911    -0.2246154588
Bq         1.0670290722    -1.7377854489     0.3897376142
Bq         1.3859231825    -1.5248602400    -0.3123801835
Bq         1.0271673084    -1.7644011000     0.4775023389
Bq         1.4257849463    -1.4982445889    -0.4001449082
Bq         1.2264761274    -1.6313228445     0.0386787153
Bq         1.1756078902    -1.5615455129     0.1506766905
Bq         1.2553314178    -1.5083142106    -0.0248527589
Bq         1.1357461264    -1.5881611640     0.2384414152
Bq         1.2951931816    -1.4816985595    -0.1126174837
Bq         1.0958843626    -1.6147768151     0.3262061399
Bq         1.3350549454    -1.4550829084    -0.2003822084
Bq         1.0560225988    -1.6413924662     0.4139708646
Bq         1.3749167091    -1.4284672573    -0.2881469331
Bq         1.0161608351    -1.6680081173     0.5017355893
Bq         1.4147784729    -1.4018516062    -0.3759116578
Bq         1.2154696540    -1.5349298617     0.0629119658
Bq         1.1646014168    -1.4651525301     0.1749099409
Bq         1.2443249444    -1.4119212279    -0.0006195085
Bq         1.1247396530    -1.4917681812     0.2626746657
Bq         1.2841867082    -1.3853055768    -0.0883842332
Bq         1.0848778893    -1.5183838324     0.3504393904
Bq         1.3240484720    -1.3586899257    -0.1761489579
Bq         1.0450161255    -1.5449994835     0.4382041151
Bq         1.3639102358    -1.3320742746    -0.2639136826
Bq         1.0051543617    -1.5716151346     0.5259688398
Bq         1.4037719996    -1.3054586235    -0.3516784073
Bq         1.2044631806    -1.4385368790     0.0871452162
Bq         1.1535949435    -1.3687595474     0.1991431914
Bq         1.2333184710    -1.3155282452     0.0236137420
Bq         1.1137331797    -1.3953751985     0.2869079161
Bq         1.2731802348    -1.2889125941    -0.0641509827
Bq         1.0738714159    -1.4219908496     0.3746726408
Bq         1.3130419986    -1.2622969430    -0.1519157075

1
2
3
4
5
6
7
8
9
10
11
12
13
14
15
16
17
18
19
20
21
22
23
24
25
26
27
28
29
30
31
32
33
34
35
36
37
38
39
40
41
42
43
44
45
46
47
48
49
50
51
52
53
54
55
56
57
58
59
60
61
62
63
64
65
66
67
68
69
70
71
72
73
74
75
76
77
78
79
80
81
82
83
84
85
86
87
88
89
90
91
92
93
94
95
96
97
98
99
100
101
102
103
104
105
106
107
108
109
110
111
112
113
114
115
116
117
118
119
120
121
122
123
124
125
126
127
128
129
130
131
132
133
134
135
136
137
138
139
140
141
142
143
144
145
146
147
148
149
150
151
152
153
154
155
156
157
158
159
160
161
162
163
164
165
166
167
168
169
170
171
172
173
174
175
176
177
178
179
180
181
182
183
184
185
186
187
188
189
190
191
192
193
194
195
196
197
198
199
200
201
202
203
204
205
206
207
208
209
210
211
212
213
214
215
216
217
218
219
220
221
222
223
224
225
226
227
228
229
230
231
232
233
234
235
236

