%nproc=8
%mem=1000MB
# rb3lyp/6-311+g** NMR geom=connectivity

Title

0 1
C    -4.0500558   -0.5771862    0.8136712
H    -5.0263804   -1.0082727    1.0024760
C    -3.9381552    0.6617804    0.2400876
H    -4.8252424    1.2338890   -0.0111295
C    -2.6768410    1.2433246    0.0057578
C    -1.4974121    0.5051527    0.2848253
C    -1.6508332   -0.7338728    0.9404026
H    -0.7713646   -1.2730967    1.2633753
C    -2.8898548   -1.2624035    1.1994307
H    -2.9683706   -2.2124563    1.7152676
C    -2.5773185    2.5963696   -0.4192930
H    -3.4870728    3.1412239   -0.6474055
C    -1.3741895    3.2147896   -0.4364030
H    -1.2997315    4.2742019   -0.6578144
C    -0.1719488    2.4994090   -0.1734588
C    -0.2043917    1.1018437    0.0192689
C     1.0513491    3.2042560   -0.0676222
H     1.0427344    4.2819499   -0.1896997
C     2.1942091    2.5487446    0.2579577
H     3.1168527    3.0912848    0.4334727
C     2.2216473    1.1336562    0.2934990
C     1.0486931    0.3945528    0.0302412
C     3.4483363    0.4614633    0.5573939
H     4.3095794    1.0606054    0.8334846
C     3.5427346   -0.8855926    0.4749463
H     4.4731467   -1.3939704    0.7038822
C     2.4490052   -1.6474447   -0.0196319
C     1.2150704   -1.0057258   -0.3013573
C     0.2531113   -1.7434440   -1.0216591
H    -0.6541356   -1.2535051   -1.3462847
C     0.4494193   -3.0628597   -1.3413779
H    -0.3083162   -3.5944309   -1.9054060
C     1.6251726   -3.7207967   -0.9552541
H     1.7670048   -4.7687404   -1.1927019
C     2.6109872   -3.0144177   -0.3183050
H     3.5525612   -3.4902813   -0.0646367
Bq         1.5037868770    -2.0435104264     0.1535706011
Bq         1.5835104046    -1.9902791242    -0.0219588483
Bq         1.4639251132    -2.0701260775     0.2413353258
Bq         1.6233721684    -1.9636634731    -0.1097235731
Bq         1.4240633494    -2.0967417286     0.3291000505
Bq         1.6632339322    -1.9370478220    -0.1974882978
Bq         1.3842015856    -2.1233573797     0.4168647752
Bq         1.7030956959    -1.9104321709    -0.2852530225
Bq         1.3443398219    -2.1499730308     0.5046294999
Bq         1.7429574597    -1.8838165198    -0.3730177472
Bq         1.5436486408    -2.0168947753     0.0658058764
Bq         1.4927804036    -1.9471174437     0.1778038515
Bq         1.5725039312    -1.8938861415     0.0022744021
Bq         1.4529186398    -1.9737330948     0.2655685763
Bq         1.6123656950    -1.8672704904    -0.0854903226
Bq         1.4130568761    -2.0003487459     0.3533333010
Bq         1.6522274588    -1.8406548393    -0.1732550473
Bq         1.3731951123    -2.0269643970     0.4410980257
Bq         1.6920892226    -1.8140391882    -0.2610197720
Bq         1.3333333485    -2.0535800481     0.5288627504
Bq         1.7319509864    -1.7874235371    -0.3487844967
Bq         1.5326421674    -1.9205017926     0.0900391268
Bq         1.4817739303    -1.8507244610     0.2020371020
Bq         1.5614974578    -1.7974931588     0.0265076526
Bq         1.4419121665    -1.8773401121     0.2898018267
Bq         1.6013592216    -1.7708775077    -0.0612570721
Bq         1.4020504027    -1.9039557632     0.3775665514
Bq         1.6412209854    -1.7442618566    -0.1490217969
Bq         1.3621886389    -1.9305714143     0.4653312761
Bq         1.6810827492    -1.7176462055    -0.2367865216
Bq         1.3223268751    -1.9571870654     0.5530960008
Bq         1.7209445130    -1.6910305543    -0.3245512463
Bq         1.5216356940    -1.8241088099     0.1142723773
Bq         1.4707674569    -1.7543314783     0.2262703525
Bq         1.5504909845    -1.7011001761     0.0507409030
Bq         1.4309056931    -1.7809471294     0.3140350772
Bq         1.5903527482    -1.6744845250    -0.0370238217
Bq         1.3910439293    -1.8075627805     0.4017998019
Bq         1.6302145120    -1.6478688739    -0.1247885464
Bq         1.3511821655    -1.8341784316     0.4895645266
Bq         1.6700762758    -1.6212532227    -0.2125532711
Bq         1.3113204017    -1.8607940827     0.5773292513
Bq         1.7099380396    -1.5946375716    -0.3003179958
Bq         1.5106292207    -1.7277158272     0.1385056277
Bq         1.4597609835    -1.6579384956     0.2505036029
Bq         1.5394845111    -1.6047071934     0.0749741535
Bq         1.4198992197    -1.6845541467     0.3382683276
Bq         1.5793462749    -1.5780915422    -0.0127905712
Bq         1.3800374559    -1.7111697978     0.4260330523
Bq         1.6192080387    -1.5514758911    -0.1005552959
Bq         1.3401756922    -1.7377854489     0.5137977770
Bq         1.6590698025    -1.5248602400    -0.1883200207
Bq         1.3003139284    -1.7644011000     0.6015625018
Bq         1.6989315662    -1.4982445889    -0.2760847454
Bq         1.4996227473    -1.6313228445     0.1627388782
Bq         1.4487545101    -1.5615455129     0.2747368534
Bq         1.5284780377    -1.5083142106     0.0992074039
Bq         1.4088927464    -1.5881611640     0.3625015781
Bq         1.5683398015    -1.4816985595     0.0114426792
Bq         1.3690309826    -1.6147768151     0.4502663028
Bq         1.6082015653    -1.4550829084    -0.0763220455
Bq         1.3291692188    -1.6413924662     0.5380310275
Bq         1.6480633291    -1.4284672573    -0.1640867702
Bq         1.2893074550    -1.6680081173     0.6257957522
Bq         1.6879250929    -1.4018516062    -0.2518514949
Bq         1.4886162739    -1.5349298617     0.1869721287
Bq         1.4377480368    -1.4651525301     0.2989701038
Bq         1.5174715643    -1.4119212279     0.1234406544
Bq         1.3978862730    -1.4917681812     0.3867348285
Bq         1.5573333281    -1.3853055768     0.0356759297
Bq         1.3580245092    -1.5183838324     0.4744995533
Bq         1.5971950919    -1.3586899257    -0.0520887950
Bq         1.3181627454    -1.5449994835     0.5622642780
Bq         1.6370568557    -1.3320742746    -0.1398535197
Bq         1.2783009816    -1.5716151346     0.6500290027
Bq         1.6769186195    -1.3054586235    -0.2276182444
Bq         1.4776098006    -1.4385368790     0.2112053791
Bq         1.4267415634    -1.3687595474     0.3232033543
Bq         1.5064650910    -1.3155282452     0.1476739049
Bq         1.3868797996    -1.3953751985     0.4109680790
Bq         1.5463268548    -1.2889125941     0.0599091801
Bq         1.3470180358    -1.4219908496     0.4987328037
Bq         1.5861886185    -1.2622969430    -0.0278555446
Bq         1.3071562720    -1.4486065008     0.5864975284
Bq         1.6260503823    -1.2356812919    -0.1156202693
Bq         1.2672945082    -1.4752221519     0.6742622531
Bq         1.6659121461    -1.2090656408    -0.2033849940
Bq         1.4666033272    -1.3421438963     0.2354386296
Bq         1.4157350900    -1.2723665647     0.3474366047
Bq         1.4954586176    -1.2191352625     0.1719071553
Bq         1.3758733262    -1.2989822158     0.4352013295
Bq         1.5353203814    -1.1925196114     0.0841424306
Bq         1.3360115625    -1.3255978669     0.5229660542
Bq         1.5751821452    -1.1659039603    -0.0036222941
Bq         1.2961497987    -1.3522135180     0.6107307789
Bq         1.6150439090    -1.1392883092    -0.0913870188
Bq         1.2562880349    -1.3788291691     0.6984955036
Bq         1.6549056728    -1.1126726581    -0.1791517435
Bq         1.4555968538    -1.2457509136     0.2596718800
Bq         1.4047286167    -1.1759735820     0.3716698552
Bq         1.4844521442    -1.1227422798     0.1961404058
Bq         1.3648668529    -1.2025892331     0.4594345799
Bq         1.5243139080    -1.0961266287     0.1083756811
Bq         1.3250050891    -1.2292048842     0.5471993046
Bq         1.5641756718    -1.0695109776     0.0206109564
Bq         1.2851433253    -1.2558205353     0.6349640293
Bq         1.6040374356    -1.0428953265    -0.0671537684
Bq         1.2452815615    -1.2824361864     0.7227287541
Bq         1.6438991994    -1.0162796754    -0.1549184931
Bq         1.4445903804    -1.1493579309     0.2839051305
Bq         1.3937221433    -1.0795805993     0.3959031057
Bq         1.4734456709    -1.0263492971     0.2203736562
Bq         1.3538603795    -1.1061962504     0.4836678304
Bq         1.5133074346    -0.9997336460     0.1326089315
Bq         1.3139986157    -1.1328119015     0.5714325551
Bq         1.5531691984    -0.9731179949     0.0448442068
Bq         1.2741368519    -1.1594275526     0.6591972798
Bq         1.5930309622    -0.9465023438    -0.0429205179
Bq         1.2342750881    -1.1860432037     0.7469620045
Bq         1.6328927260    -0.9198866927    -0.1306852426
Bq         1.4335839071    -1.0529649482     0.3081383809
Bq         1.3827156699    -0.9831876166     0.4201363561
Bq         1.4624391975    -0.9299563144     0.2446069067
Bq         1.3428539061    -1.0098032677     0.5079010808
Bq         1.5023009613    -0.9033406633     0.1568421820
Bq         1.3029921423    -1.0364189188     0.5956658055
Bq         1.5421627251    -0.8767250122     0.0690774573
Bq         1.2631303785    -1.0630345699     0.6834305303
Bq         1.5820244888    -0.8501093610    -0.0186872674
Bq         1.2232686148    -1.0896502210     0.7711952550
Bq         1.6218862526    -0.8234937099    -0.1064519922
Bq         1.4225774337    -0.9565719655     0.3323716314
Bq         1.3717091965    -0.8867946339     0.4443696066
Bq         1.4514327241    -0.8335633317     0.2688401572
Bq         1.3318474327    -0.9134102850     0.5321343313
Bq         1.4912944879    -0.8069476805     0.1810754324
Bq         1.2919856690    -0.9400259361     0.6198990560
Bq         1.5311562517    -0.7803320294     0.0933107077
Bq         1.2521239052    -0.9666415872     0.7076637807
Bq         1.5710180155    -0.7537163783     0.0055459830
Bq         1.2122621414    -0.9932572383     0.7954285054
Bq         1.6108797793    -0.7271007272    -0.0822187417
Bq         1.4115709603    -0.8601789828     0.3566048819
Bq         1.3607027232    -0.7904016512     0.4686028570
Bq         1.4404262507    -0.7371703489     0.2930734076
Bq         1.3208409594    -0.8170173023     0.5563675817
Bq         1.4802880145    -0.7105546978     0.2053086829
Bq         1.2809791956    -0.8436329534     0.6441323065
Bq         1.5201497783    -0.6839390467     0.1175439582
Bq         1.2411174318    -0.8702486045     0.7318970312
Bq         1.5600115421    -0.6573233956     0.0297792335
Bq         1.2012556680    -0.8968642556     0.8196617559
Bq         1.5998733059    -0.6307077445    -0.0579854912
Bq         1.4005644870    -0.7637860000     0.3808381323
Bq         1.3496962498    -0.6940086684     0.4928361075
Bq         1.4294197774    -0.6407773662     0.3173066581
Bq         1.3098344860    -0.7206243196     0.5806008322
Bq         1.4692815412    -0.6141617151     0.2295419334
Bq         1.2699727222    -0.7472399707     0.6683655569
Bq         1.5091433049    -0.5875460640     0.1417772086
Bq         1.2301109584    -0.7738556218     0.7561302816
Bq         1.5490050687    -0.5609304129     0.0540124839
Bq         1.1902491946    -0.8004712729     0.8438950063
Bq         1.5888668325    -0.5343147618    -0.0337522408
Bq         1.3895580136    -0.6673930173     0.4050713828
Bq         1.3386897764    -0.5976156857     0.5170693579
Bq         1.4184133040    -0.5443843835     0.3415399085
Bq         1.2988280126    -0.6242313368     0.6048340827
Bq         1.4582750678    -0.5177687324     0.2537751838
Bq         1.2589662488    -0.6508469879     0.6925988074
Bq         1.4981368316    -0.4911530813     0.1660104591
Bq         1.2191044851    -0.6774626391     0.7803635321
Bq         1.5379985954    -0.4645374302     0.0782457344
Bq         1.1792427213    -0.7040782902     0.8681282568
Bq         1.5778603591    -0.4379217791    -0.0095189903
Bq         1.3785515402    -0.5710000346     0.4293046332
Bq         1.3276833030    -0.5012227030     0.5413026084
Bq         1.4074068306    -0.4479914008     0.3657731590
Bq         1.2878215393    -0.5278383541     0.6290673331
Bq         1.4472685944    -0.4213757497     0.2780084343
Bq         1.2479597755    -0.5544540052     0.7168320578
Bq         1.4871303582    -0.3947600986     0.1902437096
Bq         1.2080980117    -0.5810696563     0.8045967825
Bq         1.5269921220    -0.3681444475     0.1024789848
Bq         1.1682362479    -0.6076853074     0.8923615073
Bq         1.5668538858    -0.3415287964     0.0147142601
Bq         1.3675450668    -0.4746070519     0.4535378837
Bq         1.3166768297    -0.4048297203     0.5655358589
Bq         1.3964003573    -0.3515984181     0.3900064094
Bq         1.2768150659    -0.4314453714     0.6533005836
Bq         1.4362621210    -0.3249827670     0.3022416847
Bq         1.2369533021    -0.4580610225     0.7410653083
Bq         1.4761238848    -0.2983671159     0.2144769600
Bq         1.1970915383    -0.4846766736     0.8288300330
Bq         1.5159856486    -0.2717514648     0.1267122353
Bq         1.1572297745    -0.5112923247     0.9165947577
Bq         1.5558474124    -0.2451358137     0.0389475106
Bq         1.3565385935    -0.3782140692     0.4777711342
Bq         1.3056703563    -0.3084367376     0.5897691093
Bq         1.3853938839    -0.2552054354     0.4142396599

1
2
3
4
5
6
7
8
9
10
11
12
13
14
15
16
17
18
19
20
21
22
23
24
25
26
27
28
29
30
31
32
33
34
35
36
37
38
39
40
41
42
43
44
45
46
47
48
49
50
51
52
53
54
55
56
57
58
59
60
61
62
63
64
65
66
67
68
69
70
71
72
73
74
75
76
77
78
79
80
81
82
83
84
85
86
87
88
89
90
91
92
93
94
95
96
97
98
99
100
101
102
103
104
105
106
107
108
109
110
111
112
113
114
115
116
117
118
119
120
121
122
123
124
125
126
127
128
129
130
131
132
133
134
135
136
137
138
139
140
141
142
143
144
145
146
147
148
149
150
151
152
153
154
155
156
157
158
159
160
161
162
163
164
165
166
167
168
169
170
171
172
173
174
175
176
177
178
179
180
181
182
183
184
185
186
187
188
189
190
191
192
193
194
195
196
197
198
199
200
201
202
203
204
205
206
207
208
209
210
211
212
213
214
215
216
217
218
219
220
221
222
223
224
225
226
227
228
229
230
231
232
233
234
235
236

