%nproc=8
%mem=1000MB
# rb3lyp/6-311+g** NMR geom=connectivity

Title

0 1
C    -4.0500558   -0.5771862    0.8136712
H    -5.0263804   -1.0082727    1.0024760
C    -3.9381552    0.6617804    0.2400876
H    -4.8252424    1.2338890   -0.0111295
C    -2.6768410    1.2433246    0.0057578
C    -1.4974121    0.5051527    0.2848253
C    -1.6508332   -0.7338728    0.9404026
H    -0.7713646   -1.2730967    1.2633753
C    -2.8898548   -1.2624035    1.1994307
H    -2.9683706   -2.2124563    1.7152676
C    -2.5773185    2.5963696   -0.4192930
H    -3.4870728    3.1412239   -0.6474055
C    -1.3741895    3.2147896   -0.4364030
H    -1.2997315    4.2742019   -0.6578144
C    -0.1719488    2.4994090   -0.1734588
C    -0.2043917    1.1018437    0.0192689
C     1.0513491    3.2042560   -0.0676222
H     1.0427344    4.2819499   -0.1896997
C     2.1942091    2.5487446    0.2579577
H     3.1168527    3.0912848    0.4334727
C     2.2216473    1.1336562    0.2934990
C     1.0486931    0.3945528    0.0302412
C     3.4483363    0.4614633    0.5573939
H     4.3095794    1.0606054    0.8334846
C     3.5427346   -0.8855926    0.4749463
H     4.4731467   -1.3939704    0.7038822
C     2.4490052   -1.6474447   -0.0196319
C     1.2150704   -1.0057258   -0.3013573
C     0.2531113   -1.7434440   -1.0216591
H    -0.6541356   -1.2535051   -1.3462847
C     0.4494193   -3.0628597   -1.3413779
H    -0.3083162   -3.5944309   -1.9054060
C     1.6251726   -3.7207967   -0.9552541
H     1.7670048   -4.7687404   -1.1927019
C     2.6109872   -3.0144177   -0.3183050
H     3.5525612   -3.4902813   -0.0646367
Bq         0.0847732424     2.5632763409    -0.1352813799
Bq         0.0501954104     2.7842201973     0.7364916329
Bq         0.0886152237     2.5387270236    -0.2321450480
Bq         0.0694053171     2.6614736105     0.2521732924
Bq         0.0665362900     2.7829627598     0.3245069311
Bq         0.0742202526     2.7338641250     0.1307795949
Bq         0.0626943087     2.8075120771     0.4213705992
Bq         0.0780622340     2.7093148076     0.0339159268
Bq         0.0588523273     2.8320613945     0.5182342673
Bq         0.0819042153     2.6847654903    -0.0629477413
Bq         0.0550103460     2.8566107119     0.6150979354
Bq         0.0857461966     2.6602161729    -0.1598114094
Bq         0.0511683647     2.8811600293     0.7119616034
Bq         0.0895881780     2.6356668555    -0.2566750775
Bq         0.0703782713     2.7584134424     0.2276432630
Bq         0.0675092442     2.8799025917     0.2999769017
Bq         0.0751932069     2.8308039570     0.1062495655
Bq         0.0636672629     2.9044519091     0.3968405697
Bq         0.0790351882     2.8062546396     0.0093858974
Bq         0.0598252815     2.9290012265     0.4937042378
Bq         0.0828771695     2.7817053222    -0.0874777707
Bq         0.0559833002     2.9535505438     0.5905679059
Bq         0.0867191509     2.7571560048    -0.1843414388
Bq         0.0521413189     2.9780998612     0.6874315740
Bq         0.0905611322     2.7326066875    -0.2812051069
Bq         0.0713512255     2.8553532743     0.2031132336
Bq         0.0684821984     2.9768424236     0.2754468722
Bq         0.0761661611     2.9277437889     0.0817195360
Bq         0.0646402171     3.0013917410     0.3723105403
Bq         0.0800081424     2.9031944715    -0.0151441320
Bq         0.0607982358     3.0259410584     0.4691742084
Bq         0.0838501237     2.8786451541    -0.1120078001
Bq         0.0569562544     3.0504903758     0.5660378765
Bq         0.0876921051     2.8540958368    -0.2088714682
Bq         0.0531142731     3.0750396931     0.6629015446
Bq         0.0915340864     2.8295465194    -0.3057351363
Bq         0.0723241798     2.9522931063     0.1785832041
Bq         0.0694551527     3.0737822556     0.2509168428
Bq         0.0771391153     3.0246836208     0.0571895066
Bq         0.0656131713     3.0983315730     0.3477805109
Bq         0.0809810966     3.0001343035    -0.0396741615
Bq         0.0617711900     3.1228808903     0.4446441790
Bq         0.0848230780     2.9755849861    -0.1365378296
Bq         0.0579292087     3.1474302077     0.5415078471
Bq         0.0886650593     2.9510356687    -0.2334014976
Bq         0.0540872273     3.1719795251     0.6383715152
Bq         0.0925070406     2.9264863513    -0.3302651657
Bq         0.0732971340     3.0492329382     0.1540531747
Bq         0.0704281069     3.1707220875     0.2263868134
Bq         0.0781120695     3.1216234528     0.0326594772
Bq         0.0665861255     3.1952714049     0.3232504815
Bq         0.0819540509     3.0970741354    -0.0642041909
Bq         0.0627441442     3.2198207223     0.4201141496
Bq         0.0857960322     3.0725248180    -0.1610678590
Bq         0.0589021629     3.2443700397     0.5169778176
Bq         0.0896380135     3.0479755006    -0.2579315271
Bq         0.0550601816     3.2689193570     0.6138414857
Bq         0.0934799949     3.0234261833    -0.3547951952
Bq         0.0742700882     3.1461727701     0.1295231453
Bq         0.0714010611     3.2676619195     0.2018567839
Bq         0.0790850238     3.2185632847     0.0081294478
Bq         0.0675590798     3.2922112368     0.2987204520
Bq         0.0829270051     3.1940139673    -0.0887342203
Bq         0.0637170984     3.3167605542     0.3955841201
Bq         0.0867689864     3.1694646500    -0.1855978884
Bq         0.0598751171     3.3413098716     0.4924477882
Bq         0.0906109677     3.1449153326    -0.2824615565
Bq         0.0560331358     3.3658591890     0.5893114563
Bq         0.0944529491     3.1203660152    -0.3793252246
Bq         0.0752430424     3.2431126021     0.1049931159
Bq         0.0723740153     3.3646017514     0.1773267545
Bq         0.0800579780     3.3155031167    -0.0164005817
Bq         0.0685320340     3.3891510688     0.2741904226
Bq         0.0838999593     3.2909537993    -0.1132642497
Bq         0.0646900527     3.4137003862     0.3710540907
Bq         0.0877419406     3.2664044819    -0.2101279178
Bq         0.0608480713     3.4382497035     0.4679177588
Bq         0.0915839220     3.2418551645    -0.3069915859
Bq         0.0570060900     3.4627990209     0.5647814269
Bq         0.0954259033     3.2173058471    -0.4038552540
Bq         0.0762159967     3.3400524340     0.0804630864
Bq         0.0733469696     3.4615415833     0.1527967251
Bq         0.0810309322     3.4124429486    -0.0409306111
Bq         0.0695049882     3.4860909007     0.2496603932
Bq         0.0848729135     3.3878936312    -0.1377942792
Bq         0.0656630069     3.5106402181     0.3465240613
Bq         0.0887148949     3.3633443138    -0.2346579473
Bq         0.0618210256     3.5351895355     0.4433877294
Bq         0.0925568762     3.3387949965    -0.3315216154
Bq         0.0579790442     3.5597388528     0.5402513975
Bq         0.0963988575     3.3142456791    -0.4283852834
Bq         0.0771889509     3.4369922660     0.0559330570
Bq         0.0743199238     3.5584814153     0.1282666957
Bq         0.0820038864     3.5093827805    -0.0654606405
Bq         0.0704779424     3.5830307327     0.2251303638
Bq         0.0858458678     3.4848334632    -0.1623243086
Bq         0.0666359611     3.6075800500     0.3219940318
Bq         0.0896878491     3.4602841458    -0.2591879767
Bq         0.0627939798     3.6321293674     0.4188576999
Bq         0.0935298304     3.4357348284    -0.3560516448
Bq         0.0589519985     3.6566786848     0.5157213680
Bq         0.0973718118     3.4111855110    -0.4529153129
Bq         0.0781619051     3.5339320979     0.0314030276
Bq         0.0752928780     3.6554212472     0.1037366662
Bq         0.0829768407     3.6063226125    -0.0899906699
Bq         0.0714508967     3.6799705646     0.2006003343
Bq         0.0868188220     3.5817732951    -0.1868543380
Bq         0.0676089153     3.7045198820     0.2974640024
Bq         0.0906608033     3.5572239777    -0.2837180061
Bq         0.0637669340     3.7290691993     0.3943276705
Bq         0.0945027846     3.5326746603    -0.3805816742
Bq         0.0599249527     3.7536185167     0.4911913386
Bq         0.0983447660     3.5081253430    -0.4774453423
Bq         0.0791348593     3.6308719298     0.0068729981
Bq         0.0762658322     3.7523610792     0.0792066368
Bq         0.0839497949     3.7032624444    -0.1145206994
Bq         0.0724238509     3.7769103965     0.1760703049
Bq         0.0877917762     3.6787131270    -0.2113843675
Bq         0.0685818696     3.8014597139     0.2729339730
Bq         0.0916337575     3.6541638097    -0.3082480355
Bq         0.0647398882     3.8260090313     0.3697976411
Bq         0.0954757389     3.6296144923    -0.4051117036
Bq         0.0608979069     3.8505583487     0.4666613092
Bq         0.0993177202     3.6050651749    -0.5019753717
Bq         0.0801078136     3.7278117618    -0.0176570313
Bq         0.0772387865     3.8493009111     0.0546766074
Bq         0.0849227491     3.8002022763    -0.1390507288
Bq         0.0733968051     3.8738502285     0.1515402755
Bq         0.0887647304     3.7756529590    -0.2359143969
Bq         0.0695548238     3.8983995458     0.2484039436
Bq         0.0926067118     3.7511036416    -0.3327780650
Bq         0.0657128425     3.9229488632     0.3452676117
Bq         0.0964486931     3.7265543242    -0.4296417331
Bq         0.0618708611     3.9474981806     0.4421312797
Bq         0.1002906744     3.7020050068    -0.5265054012
Bq         0.0810807678     3.8247515937    -0.0421870607
Bq         0.0782117407     3.9462407430     0.0301465780
Bq         0.0858957033     3.8971421083    -0.1635807582
Bq         0.0743697593     3.9707900604     0.1270102460
Bq         0.0897376847     3.8725927909    -0.2604444263
Bq         0.0705277780     3.9953393778     0.2238739141
Bq         0.0935796660     3.8480434735    -0.3573080944
Bq         0.0666857967     4.0198886952     0.3207375822
Bq         0.0974216473     3.8234941562    -0.4541717625
Bq         0.0628438154     4.0444380125     0.4176012503
Bq         0.1012636286     3.7989448388    -0.5510354306
Bq         0.0820537220     3.9216914257    -0.0667170901
Bq         0.0791846949     4.0431805750     0.0056165485
Bq         0.0868686576     3.9940819402    -0.1881107876
Bq         0.0753427136     4.0677298924     0.1024802166
Bq         0.0907106389     3.9695326228    -0.2849744557
Bq         0.0715007322     4.0922792097     0.1993438847
Bq         0.0945526202     3.9449833055    -0.3818381238
Bq         0.0676587509     4.1168285271     0.2962075528
Bq         0.0983946015     3.9204339881    -0.4787017919
Bq         0.0638167696     4.1413778445     0.3930712209
Bq         0.1022365829     3.8958846707    -0.5755654600
Bq         0.0830266762     4.0186312576    -0.0912471196
Bq         0.0801576491     4.1401204069    -0.0189134809
Bq         0.0878416118     4.0910217722    -0.2126408171
Bq         0.0763156678     4.1646697243     0.0779501872
Bq         0.0916835931     4.0664724548    -0.3095044852
Bq         0.0724736865     4.1892190417     0.1748138553
Bq         0.0955255744     4.0419231374    -0.4063681533
Bq         0.0686317051     4.2137683590     0.2716775234
Bq         0.0993675558     4.0173738200    -0.5032318213
Bq         0.0647897238     4.2383176764     0.3685411915
Bq         0.1032095371     3.9928245027    -0.6000954894
Bq         0.0839996305     4.1155710895    -0.1157771490
Bq         0.0811306033     4.2370602389    -0.0434435103
Bq         0.0888145660     4.1879616041    -0.2371708465
Bq         0.0772886220     4.2616095562     0.0534201578
Bq         0.0926565473     4.1634122867    -0.3340345146
Bq         0.0734466407     4.2861588736     0.1502838259
Bq         0.0964985287     4.1388629694    -0.4308981827
Bq         0.0696046594     4.3107081910     0.2471474939
Bq         0.1003405100     4.1143136520    -0.5277618508
Bq         0.0657626780     4.3352575084     0.3440111620
Bq         0.1041824913     4.0897643346    -0.6246255189
Bq         0.0849725847     4.2125109215    -0.1403071784
Bq         0.0821035576     4.3340000708    -0.0679735397
Bq         0.0897875202     4.2849014360    -0.2617008759
Bq         0.0782615762     4.3585493882     0.0288901283
Bq         0.0936295016     4.2603521187    -0.3585645440
Bq         0.0744195949     4.3830987055     0.1257537964
Bq         0.0974714829     4.2358028013    -0.4554282121
Bq         0.0705776136     4.4076480229     0.2226174645
Bq         0.1013134642     4.2112534839    -0.5522918802
Bq         0.0667356323     4.4321973403     0.3194811326
Bq         0.1051554455     4.1867041665    -0.6491555483
Bq         0.0859455389     4.3094507534    -0.1648372078
Bq         0.0830765118     4.4309399027    -0.0925035692
Bq         0.0907604745     4.3818412680    -0.2862309054
Bq         0.0792345305     4.4554892201     0.0043600989
Bq         0.0946024558     4.3572919506    -0.3830945734
Bq         0.0753925491     4.4800385375     0.1012237670
Bq         0.0984444371     4.3327426332    -0.4799582415
Bq         0.0715505678     4.5045878549     0.1980874351
Bq         0.1022864184     4.3081933159    -0.5768219096
Bq         0.0677085865     4.5291371722     0.2949511032

1
2
3
4
5
6
7
8
9
10
11
12
13
14
15
16
17
18
19
20
21
22
23
24
25
26
27
28
29
30
31
32
33
34
35
36
37
38
39
40
41
42
43
44
45
46
47
48
49
50
51
52
53
54
55
56
57
58
59
60
61
62
63
64
65
66
67
68
69
70
71
72
73
74
75
76
77
78
79
80
81
82
83
84
85
86
87
88
89
90
91
92
93
94
95
96
97
98
99
100
101
102
103
104
105
106
107
108
109
110
111
112
113
114
115
116
117
118
119
120
121
122
123
124
125
126
127
128
129
130
131
132
133
134
135
136
137
138
139
140
141
142
143
144
145
146
147
148
149
150
151
152
153
154
155
156
157
158
159
160
161
162
163
164
165
166
167
168
169
170
171
172
173
174
175
176
177
178
179
180
181
182
183
184
185
186
187
188
189
190
191
192
193
194
195
196
197
198
199
200
201
202
203
204
205
206
207
208
209
210
211
212
213
214
215
216
217
218
219
220
221
222
223
224
225
226
227
228
229
230
231
232
233
234
235
236

