%nproc=8
%mem=1000MB
# rb3lyp/6-311+g** NMR geom=connectivity

Title

0 1
C    -4.0500558   -0.5771862    0.8136712
H    -5.0263804   -1.0082727    1.0024760
C    -3.9381552    0.6617804    0.2400876
H    -4.8252424    1.2338890   -0.0111295
C    -2.6768410    1.2433246    0.0057578
C    -1.4974121    0.5051527    0.2848253
C    -1.6508332   -0.7338728    0.9404026
H    -0.7713646   -1.2730967    1.2633753
C    -2.8898548   -1.2624035    1.1994307
H    -2.9683706   -2.2124563    1.7152676
C    -2.5773185    2.5963696   -0.4192930
H    -3.4870728    3.1412239   -0.6474055
C    -1.3741895    3.2147896   -0.4364030
H    -1.2997315    4.2742019   -0.6578144
C    -0.1719488    2.4994090   -0.1734588
C    -0.2043917    1.1018437    0.0192689
C     1.0513491    3.2042560   -0.0676222
H     1.0427344    4.2819499   -0.1896997
C     2.1942091    2.5487446    0.2579577
H     3.1168527    3.0912848    0.4334727
C     2.2216473    1.1336562    0.2934990
C     1.0486931    0.3945528    0.0302412
C     3.4483363    0.4614633    0.5573939
H     4.3095794    1.0606054    0.8334846
C     3.5427346   -0.8855926    0.4749463
H     4.4731467   -1.3939704    0.7038822
C     2.4490052   -1.6474447   -0.0196319
C     1.2150704   -1.0057258   -0.3013573
C     0.2531113   -1.7434440   -1.0216591
H    -0.6541356   -1.2535051   -1.3462847
C     0.4494193   -3.0628597   -1.3413779
H    -0.3083162   -3.5944309   -1.9054060
C     1.6251726   -3.7207967   -0.9552541
H     1.7670048   -4.7687404   -1.1927019
C     2.6109872   -3.0144177   -0.3183050
H     3.5525612   -3.4902813   -0.0646367
Bq        -1.8438955434    -0.4418584492     0.5498475189
Bq        -1.8784733753    -0.2209145928     1.4216205317
Bq        -1.8400535621    -0.4664077665     0.4529838508
Bq        -1.8592634687    -0.3436611797     0.9373021912
Bq        -1.8621324958    -0.2221720303     1.0096358299
Bq        -1.8544485331    -0.2712706651     0.8159084937
Bq        -1.8659744771    -0.1976227130     1.1064994980
Bq        -1.8506065518    -0.2958199825     0.7190448256
Bq        -1.8698164585    -0.1730733956     1.2033631661
Bq        -1.8467645705    -0.3203692998     0.6221811575
Bq        -1.8736584398    -0.1485240782     1.3002268342
Bq        -1.8429225892    -0.3449186172     0.5253174895
Bq        -1.8775004211    -0.1239747608     1.3970905023
Bq        -1.8390806078    -0.3694679346     0.4284538214
Bq        -1.8582905145    -0.2467213477     0.9127721618
Bq        -1.8611595416    -0.1252321984     0.9851058005
Bq        -1.8534755789    -0.1743308332     0.7913784643
Bq        -1.8650015229    -0.1006828810     1.0819694686
Bq        -1.8496335976    -0.1988801505     0.6945147962
Bq        -1.8688435042    -0.0761335637     1.1788331367
Bq        -1.8457916163    -0.2234294679     0.5976511281
Bq        -1.8726854856    -0.0515842463     1.2756968048
Bq        -1.8419496349    -0.2479787853     0.5007874600
Bq        -1.8765274669    -0.0270349289     1.3725604728
Bq        -1.8381076536    -0.2725281027     0.4039237919
Bq        -1.8573175602    -0.1497815158     0.8882421324
Bq        -1.8601865874    -0.0282923665     0.9605757711
Bq        -1.8525026247    -0.0773910012     0.7668484349
Bq        -1.8640285687    -0.0037430491     1.0574394391
Bq        -1.8486606434    -0.1019403186     0.6699847668
Bq        -1.8678705500     0.0208062683     1.1543031072
Bq        -1.8448186620    -0.1264896360     0.5731210987
Bq        -1.8717125313     0.0453555857     1.2511667753
Bq        -1.8409766807    -0.1510389533     0.4762574306
Bq        -1.8755545127     0.0699049030     1.3480304434
Bq        -1.8371346994    -0.1755882707     0.3793937625
Bq        -1.8563446060    -0.0528416838     0.8637121030
Bq        -1.8592136331     0.0686474655     0.9360457416
Bq        -1.8515296705     0.0195488307     0.7423184054
Bq        -1.8630556145     0.0931967828     1.0329094097
Bq        -1.8476876891    -0.0050004867     0.6454547374
Bq        -1.8668975958     0.1177461002     1.1297730778
Bq        -1.8438457078    -0.0295498040     0.5485910693
Bq        -1.8707395771     0.1422954176     1.2266367459
Bq        -1.8400037265    -0.0540991214     0.4517274012
Bq        -1.8745815584     0.1668447350     1.3235004140
Bq        -1.8361617452    -0.0786484388     0.3548637331
Bq        -1.8553716518     0.0440981481     0.8391820735
Bq        -1.8582406789     0.1655872974     0.9115157122
Bq        -1.8505567162     0.1164886627     0.7177883760
Bq        -1.8620826602     0.1901366148     1.0083793803
Bq        -1.8467147349     0.0919393453     0.6209247079
Bq        -1.8659246416     0.2146859322     1.1052430484
Bq        -1.8428727536     0.0673900279     0.5240610398
Bq        -1.8697666229     0.2392352495     1.2021067165
Bq        -1.8390307723     0.0428407105     0.4271973717
Bq        -1.8736086042     0.2637845669     1.2989703846
Bq        -1.8351887909     0.0182913932     0.3303337037
Bq        -1.8543986976     0.1410379800     0.8146520441
Bq        -1.8572677247     0.2625271294     0.8869856828
Bq        -1.8495837620     0.2134284946     0.6932583466
Bq        -1.8611097060     0.2870764467     0.9838493509
Bq        -1.8457417807     0.1888791772     0.5963946785
Bq        -1.8649516873     0.3116257641     1.0807130190
Bq        -1.8418997994     0.1643298598     0.4995310104
Bq        -1.8687936687     0.3361750815     1.1775766870
Bq        -1.8380578180     0.1397805425     0.4026673423
Bq        -1.8726356500     0.3607243989     1.2744403551
Bq        -1.8342158367     0.1152312251     0.3058036742
Bq        -1.8534257434     0.2379778120     0.7901220147
Bq        -1.8562947705     0.3594669613     0.8624556533
Bq        -1.8486108078     0.3103683265     0.6687283172
Bq        -1.8601367518     0.3840162787     0.9593193214
Bq        -1.8447688265     0.2858190092     0.5718646491
Bq        -1.8639787331     0.4085655960     1.0561829895
Bq        -1.8409268451     0.2612696918     0.4750009810
Bq        -1.8678207144     0.4331149134     1.1530466576
Bq        -1.8370848638     0.2367203744     0.3781373129
Bq        -1.8716626958     0.4576642308     1.2499103257
Bq        -1.8332428825     0.2121710570     0.2812736448
Bq        -1.8524527891     0.3349176439     0.7655919853
Bq        -1.8553218162     0.4564067932     0.8379256239
Bq        -1.8476378536     0.4073081585     0.6441982877
Bq        -1.8591637976     0.4809561106     0.9347892920
Bq        -1.8437958722     0.3827588411     0.5473346196
Bq        -1.8630057789     0.5055054280     1.0316529601
Bq        -1.8399538909     0.3582095237     0.4504709516
Bq        -1.8668477602     0.5300547454     1.1285166282
Bq        -1.8361119096     0.3336602064     0.3536072835
Bq        -1.8706897415     0.5546040627     1.2253802963
Bq        -1.8322699283     0.3091108890     0.2567436154
Bq        -1.8514798349     0.4318574759     0.7410619558
Bq        -1.8543488620     0.5533466252     0.8133955945
Bq        -1.8466648993     0.5042479904     0.6196682583
Bq        -1.8581908433     0.5778959425     0.9102592626
Bq        -1.8428229180     0.4796986730     0.5228045902
Bq        -1.8620328247     0.6024452599     1.0071229307
Bq        -1.8389809367     0.4551493557     0.4259409221
Bq        -1.8658748060     0.6269945773     1.1039865988
Bq        -1.8351389554     0.4306000383     0.3290772540
Bq        -1.8697167873     0.6515438947     1.2008502669
Bq        -1.8312969740     0.4060507209     0.2322135860
Bq        -1.8505068807     0.5287973078     0.7165319264
Bq        -1.8533759078     0.6502864571     0.7888655651
Bq        -1.8456919451     0.6011878224     0.5951382289
Bq        -1.8572178891     0.6748357745     0.8857292332
Bq        -1.8418499638     0.5766385050     0.4982745608
Bq        -1.8610598704     0.6993850919     0.9825929012
Bq        -1.8380079825     0.5520891876     0.4014108927
Bq        -1.8649018518     0.7239344092     1.0794565693
Bq        -1.8341660011     0.5275398702     0.3045472246
Bq        -1.8687438331     0.7484837266     1.1763202374
Bq        -1.8303240198     0.5029905529     0.2076835565
Bq        -1.8495339265     0.6257371397     0.6920018970
Bq        -1.8524029536     0.7472262890     0.7643355356
Bq        -1.8447189909     0.6981276543     0.5706081995
Bq        -1.8562449349     0.7717756064     0.8611992037
Bq        -1.8408770096     0.6735783369     0.4737445314
Bq        -1.8600869162     0.7963249238     0.9580628718
Bq        -1.8370350282     0.6490290195     0.3768808633
Bq        -1.8639288975     0.8208742412     1.0549265399
Bq        -1.8331930469     0.6244797022     0.2800171952
Bq        -1.8677708789     0.8454235585     1.1517902080
Bq        -1.8293510656     0.5999303848     0.1831535271
Bq        -1.8485609722     0.7226769717     0.6674718675
Bq        -1.8514299993     0.8441661210     0.7398055062
Bq        -1.8437460367     0.7950674862     0.5460781700
Bq        -1.8552719807     0.8687154384     0.8366691743
Bq        -1.8399040553     0.7705181689     0.4492145019
Bq        -1.8591139620     0.8932647557     0.9335328424
Bq        -1.8360620740     0.7459688515     0.3523508338
Bq        -1.8629559433     0.9178140731     1.0303965105
Bq        -1.8322200927     0.7214195341     0.2554871658
Bq        -1.8667979246     0.9423633905     1.1272601786
Bq        -1.8283781114     0.6968702167     0.1586234977
Bq        -1.8475880180     0.8196168036     0.6429418381
Bq        -1.8504570451     0.9411059529     0.7152754768
Bq        -1.8427730825     0.8920073182     0.5215481406
Bq        -1.8542990264     0.9656552703     0.8121391449
Bq        -1.8389311011     0.8674580008     0.4246844725
Bq        -1.8581410078     0.9902045877     0.9090028130
Bq        -1.8350891198     0.8429086834     0.3278208044
Bq        -1.8619829891     1.0147539051     1.0058664811
Bq        -1.8312471385     0.8183593660     0.2309571363
Bq        -1.8658249704     1.0393032224     1.1027301491
Bq        -1.8274051571     0.7938100487     0.1340934682
Bq        -1.8466150638     0.9165566355     0.6184118087
Bq        -1.8494840909     1.0380457849     0.6907454474
Bq        -1.8418001282     0.9889471501     0.4970181112
Bq        -1.8533260722     1.0625951022     0.7876091154
Bq        -1.8379581469     0.9643978327     0.4001544431
Bq        -1.8571680535     1.0871444196     0.8844727835
Bq        -1.8341161656     0.9398485154     0.3032907750
Bq        -1.8610100349     1.1116937370     0.9813364516
Bq        -1.8302741842     0.9152991980     0.2064271069
Bq        -1.8648520162     1.1362430544     1.0782001197
Bq        -1.8264322029     0.8907498806     0.1095634388
Bq        -1.8456421096     1.0134964675     0.5938817793
Bq        -1.8485111367     1.1349856168     0.6662154179
Bq        -1.8408271740     1.0858869821     0.4724880817
Bq        -1.8523531180     1.1595349342     0.7630790860
Bq        -1.8369851927     1.0613376647     0.3756244137
Bq        -1.8561950993     1.1840842516     0.8599427541
Bq        -1.8331432113     1.0367883473     0.2787607456
Bq        -1.8600370806     1.2086335689     0.9568064222
Bq        -1.8293012300     1.0122390299     0.1818970775
Bq        -1.8638790620     1.2331828863     1.0536700903
Bq        -1.8254592487     0.9876897125     0.0850334094
Bq        -1.8446691553     1.1104362994     0.5693517498
Bq        -1.8475381824     1.2319254487     0.6416853885
Bq        -1.8398542198     1.1828268140     0.4479580523
Bq        -1.8513801638     1.2564747661     0.7385490566
Bq        -1.8360122384     1.1582774966     0.3510943842
Bq        -1.8552221451     1.2810240835     0.8354127247
Bq        -1.8321702571     1.1337281792     0.2542307161
Bq        -1.8590641264     1.3055734009     0.9322763928
Bq        -1.8283282758     1.1091788619     0.1573670481
Bq        -1.8629061078     1.3301227182     1.0291400609
Bq        -1.8244862945     1.0846295445     0.0605033800
Bq        -1.8436962011     1.2073761314     0.5448217204
Bq        -1.8465652282     1.3288652807     0.6171553591
Bq        -1.8388812656     1.2797666459     0.4234280229
Bq        -1.8504072095     1.3534145981     0.7140190272
Bq        -1.8350392842     1.2552173286     0.3265643548
Bq        -1.8542491909     1.3779639154     0.8108826953
Bq        -1.8311973029     1.2306680112     0.2297006867
Bq        -1.8580911722     1.4025132328     0.9077463633
Bq        -1.8273553216     1.2061186938     0.1328370186
Bq        -1.8619331535     1.4270625502     1.0046100314
Bq        -1.8235133402     1.1815693764     0.0359733505
Bq        -1.8427232469     1.3043159633     0.5202916910
Bq        -1.8455922740     1.4258051126     0.5926253296
Bq        -1.8379083113     1.3767064779     0.3988979935
Bq        -1.8494342553     1.4503544300     0.6894889977
Bq        -1.8340663300     1.3521571605     0.3020343254
Bq        -1.8532762366     1.4749037474     0.7863526658
Bq        -1.8302243487     1.3276078431     0.2051706573
Bq        -1.8571182180     1.4994530647     0.8832163339
Bq        -1.8263823673     1.3030585257     0.1083069892
Bq        -1.8609601993     1.5240023821     0.9800800020

1
2
3
4
5
6
7
8
9
10
11
12
13
14
15
16
17
18
19
20
21
22
23
24
25
26
27
28
29
30
31
32
33
34
35
36
37
38
39
40
41
42
43
44
45
46
47
48
49
50
51
52
53
54
55
56
57
58
59
60
61
62
63
64
65
66
67
68
69
70
71
72
73
74
75
76
77
78
79
80
81
82
83
84
85
86
87
88
89
90
91
92
93
94
95
96
97
98
99
100
101
102
103
104
105
106
107
108
109
110
111
112
113
114
115
116
117
118
119
120
121
122
123
124
125
126
127
128
129
130
131
132
133
134
135
136
137
138
139
140
141
142
143
144
145
146
147
148
149
150
151
152
153
154
155
156
157
158
159
160
161
162
163
164
165
166
167
168
169
170
171
172
173
174
175
176
177
178
179
180
181
182
183
184
185
186
187
188
189
190
191
192
193
194
195
196
197
198
199
200
201
202
203
204
205
206
207
208
209
210
211
212
213
214
215
216
217
218
219
220
221
222
223
224
225
226
227
228
229
230
231
232
233
234
235
236

