%nproc=8
%mem=1000MB
# rb3lyp/6-311+g** NMR geom=connectivity

Title

0 1
C    -4.0500558   -0.5771862    0.8136712
H    -5.0263804   -1.0082727    1.0024760
C    -3.9381552    0.6617804    0.2400876
H    -4.8252424    1.2338890   -0.0111295
C    -2.6768410    1.2433246    0.0057578
C    -1.4974121    0.5051527    0.2848253
C    -1.6508332   -0.7338728    0.9404026
H    -0.7713646   -1.2730967    1.2633753
C    -2.8898548   -1.2624035    1.1994307
H    -2.9683706   -2.2124563    1.7152676
C    -2.5773185    2.5963696   -0.4192930
H    -3.4870728    3.1412239   -0.6474055
C    -1.3741895    3.2147896   -0.4364030
H    -1.2997315    4.2742019   -0.6578144
C    -0.1719488    2.4994090   -0.1734588
C    -0.2043917    1.1018437    0.0192689
C     1.0513491    3.2042560   -0.0676222
H     1.0427344    4.2819499   -0.1896997
C     2.1942091    2.5487446    0.2579577
H     3.1168527    3.0912848    0.4334727
C     2.2216473    1.1336562    0.2934990
C     1.0486931    0.3945528    0.0302412
C     3.4483363    0.4614633    0.5573939
H     4.3095794    1.0606054    0.8334846
C     3.5427346   -0.8855926    0.4749463
H     4.4731467   -1.3939704    0.7038822
C     2.4490052   -1.6474447   -0.0196319
C     1.2150704   -1.0057258   -0.3013573
C     0.2531113   -1.7434440   -1.0216591
H    -0.6541356   -1.2535051   -1.3462847
C     0.4494193   -3.0628597   -1.3413779
H    -0.3083162   -3.5944309   -1.9054060
C     1.6251726   -3.7207967   -0.9552541
H     1.7670048   -4.7687404   -1.1927019
C     2.6109872   -3.0144177   -0.3183050
H     3.5525612   -3.4902813   -0.0646367
Bq         1.9252546936    -2.3374292939     0.4890324821
Bq         2.0279701509    -2.2805186578     0.1066573857
Bq         1.8995758293    -2.3516569529     0.5846262562
Bq         2.0536490153    -2.2662909988     0.0110636116
Bq         1.8738969650    -2.3658846120     0.6802200303
Bq         2.0793278796    -2.2520633397    -0.0845301624
Bq         1.8482181007    -2.3801122710     0.7758138044
Bq         2.1050067439    -2.2378356807    -0.1801239365
Bq         1.9766124223    -2.3089739759     0.2978449339
Bq         1.9472425074    -2.2242189408     0.4071792476
Bq         1.9986002361    -2.1957636228     0.2159916994
Bq         1.9215636431    -2.2384465999     0.5027730217
Bq         2.0242791004    -2.1815359638     0.1203979253
Bq         1.8958847788    -2.2526742589     0.5983667958
Bq         2.0499579647    -2.1673083047     0.0248041512
Bq         1.8702059145    -2.2669019179     0.6939605699
Bq         2.0756368290    -2.1530806457    -0.0707896229
Bq         1.8445270501    -2.2811295770     0.7895543440
Bq         2.1013156934    -2.1388529867    -0.1663833970
Bq         1.9729213718    -2.2099912818     0.3115854735
Bq         1.9435514569    -2.1252362468     0.4209197871
Bq         1.9949091855    -2.0967809288     0.2297322390
Bq         1.9178725926    -2.1394639058     0.5165135612
Bq         2.0205880499    -2.0825532697     0.1341384649
Bq         1.8921937283    -2.1536915649     0.6121073353
Bq         2.0462669142    -2.0683256107     0.0385446908
Bq         1.8665148639    -2.1679192239     0.7077011094
Bq         2.0719457785    -2.0540979517    -0.0570490833
Bq         1.8408359996    -2.1821468829     0.8032948835
Bq         2.0976246428    -2.0398702926    -0.1526428574
Bq         1.9692303212    -2.1110085878     0.3253260130
Bq         1.9398604064    -2.0262535528     0.4346603267
Bq         1.9912181350    -1.9977982347     0.2434727785
Bq         1.9141815420    -2.0404812118     0.5302541008
Bq         2.0168969993    -1.9835705757     0.1478790044
Bq         1.8885026777    -2.0547088708     0.6258478749
Bq         2.0425758637    -1.9693429167     0.0522852303
Bq         1.8628238134    -2.0689365299     0.7214416490
Bq         2.0682547280    -1.9551152576    -0.0433085438
Bq         1.8371449491    -2.0831641889     0.8170354231
Bq         2.0939335923    -1.9408875986    -0.1389023179
Bq         1.9655392707    -2.0120258937     0.3390665526
Bq         1.9361693558    -1.9272708587     0.4484008663
Bq         1.9875270845    -1.8988155407     0.2572133181
Bq         1.9104904915    -1.9414985178     0.5439946404
Bq         2.0132059488    -1.8845878817     0.1616195440
Bq         1.8848116272    -1.9557261768     0.6395884144
Bq         2.0388848131    -1.8703602226     0.0660257699
Bq         1.8591327629    -1.9699538358     0.7351821885
Bq         2.0645636774    -1.8561325636    -0.0295680042
Bq         1.8334538985    -1.9841814949     0.8307759626
Bq         2.0902425418    -1.8419049046    -0.1251617783
Bq         1.9618482201    -1.9130431997     0.3528070922
Bq         1.9324783053    -1.8282881647     0.4621414058
Bq         1.9838360339    -1.7998328466     0.2709538576
Bq         1.9067994410    -1.8425158237     0.5577351799
Bq         2.0095148983    -1.7856051876     0.1753600835
Bq         1.8811205766    -1.8567434828     0.6533289540
Bq         2.0351937626    -1.7713775286     0.0797663094
Bq         1.8554417123    -1.8709711418     0.7489227281
Bq         2.0608726269    -1.7571498696    -0.0158274647
Bq         1.8297628480    -1.8851988008     0.8445165022
Bq         2.0865514912    -1.7429222105    -0.1114212388
Bq         1.9581571696    -1.8140605057     0.3665476317
Bq         1.9287872548    -1.7293054707     0.4758819454
Bq         1.9801449834    -1.7008501526     0.2846943972
Bq         1.9031083904    -1.7435331297     0.5714757195
Bq         2.0058238477    -1.6866224936     0.1891006231
Bq         1.8774295261    -1.7577607887     0.6670694936
Bq         2.0315027120    -1.6723948346     0.0935068490
Bq         1.8517506618    -1.7719884478     0.7626632677
Bq         2.0571815764    -1.6581671755    -0.0020869251
Bq         1.8260717975    -1.7862161068     0.8582570418
Bq         2.0828604407    -1.6439395165    -0.0976806992
Bq         1.9544661191    -1.7150778116     0.3802881713
Bq         1.9250962042    -1.6303227766     0.4896224849
Bq         1.9764539329    -1.6018674586     0.2984349367
Bq         1.8994173399    -1.6445504357     0.5852162590
Bq         2.0021327972    -1.5876397995     0.2028411627
Bq         1.8737384756    -1.6587780947     0.6808100331
Bq         2.0278116615    -1.5734121405     0.1072473886
Bq         1.8480596113    -1.6730057537     0.7764038072
Bq         2.0534905258    -1.5591844815     0.0116536145
Bq         1.8223807469    -1.6872334127     0.8719975813
Bq         2.0791693902    -1.5449568225    -0.0839401596
Bq         1.9507750685    -1.6160951176     0.3940287108
Bq         1.9214051537    -1.5313400826     0.5033630245
Bq         1.9727628823    -1.5028847645     0.3121754763
Bq         1.8957262894    -1.5455677416     0.5989567986
Bq         1.9984417467    -1.4886571055     0.2165817022
Bq         1.8700474250    -1.5597954007     0.6945505727
Bq         2.0241206110    -1.4744294465     0.1209879281
Bq         1.8443685607    -1.5740230597     0.7901443468
Bq         2.0497994753    -1.4602017875     0.0253941540
Bq         1.8186896964    -1.5882507187     0.8857381209
Bq         2.0754783396    -1.4459741284    -0.0701996201
Bq         1.9470840180    -1.5171124236     0.4077692504
Bq         1.9177141031    -1.4323573886     0.5171035641
Bq         1.9690718318    -1.4039020705     0.3259160159
Bq         1.8920352388    -1.4465850476     0.6126973381
Bq         1.9947506961    -1.3896744115     0.2303222418
Bq         1.8663563745    -1.4608127066     0.7082911122
Bq         2.0204295604    -1.3754467524     0.1347284677
Bq         1.8406775102    -1.4750403656     0.8038848863
Bq         2.0461084248    -1.3612190934     0.0391346936
Bq         1.8149986459    -1.4892680247     0.8994786604
Bq         2.0717872891    -1.3469914344    -0.0564590805
Bq         1.9433929675    -1.4181297295     0.4215097900
Bq         1.9140230526    -1.3333746945     0.5308441036
Bq         1.9653807813    -1.3049193765     0.3396565554
Bq         1.8883441883    -1.3476023536     0.6264378777
Bq         1.9910596456    -1.2906917174     0.2440627813
Bq         1.8626653240    -1.3618300126     0.7220316518
Bq         2.0167385099    -1.2764640584     0.1484690072
Bq         1.8369864596    -1.3760576716     0.8176254259
Bq         2.0424173742    -1.2622363994     0.0528752331
Bq         1.8113075953    -1.3902853306     0.9132192000
Bq         2.0680962385    -1.2480087404    -0.0427185410
Bq         1.9397019169    -1.3191470355     0.4352503295
Bq         1.9103320021    -1.2343920005     0.5445846432
Bq         1.9616897307    -1.2059366824     0.3533970950
Bq         1.8846531378    -1.2486196595     0.6401784173
Bq         1.9873685950    -1.1917090234     0.2578033209
Bq         1.8589742734    -1.2628473185     0.7357721914
Bq         2.0130474594    -1.1774813644     0.1622095468
Bq         1.8332954091    -1.2770749776     0.8313659655
Bq         2.0387263237    -1.1632537054     0.0666157727
Bq         1.8076165448    -1.2913026366     0.9269597396
Bq         2.0644051880    -1.1490260463    -0.0289780014
Bq         1.9360108664    -1.2201643415     0.4489908691
Bq         1.9066409515    -1.1354093065     0.5583251827
Bq         1.9579986802    -1.1069539884     0.3671376345
Bq         1.8809620872    -1.1496369655     0.6539189568
Bq         1.9836775445    -1.0927263294     0.2715438604
Bq         1.8552832229    -1.1638646245     0.7495127309
Bq         2.0093564088    -1.0784986703     0.1759500864
Bq         1.8296043586    -1.1780922835     0.8451065050
Bq         2.0350352732    -1.0642710113     0.0803563123
Bq         1.8039254943    -1.1923199426     0.9407002791
Bq         2.0607141375    -1.0500433523    -0.0152374618
Bq         1.9323198159    -1.1211816474     0.4627314086
Bq         1.9029499010    -1.0364266124     0.5720657223
Bq         1.9543076297    -1.0079712944     0.3808781741
Bq         1.8772710367    -1.0506542714     0.6676594964
Bq         1.9799864940    -0.9937436353     0.2852844000
Bq         1.8515921724    -1.0648819305     0.7632532705
Bq         2.0056653583    -0.9795159763     0.1896906259
Bq         1.8259133080    -1.0791095895     0.8588470446
Bq         2.0313442226    -0.9652883173     0.0940968518
Bq         1.8002344437    -1.0933372485     0.9544408187
Bq         2.0570230869    -0.9510606583    -0.0014969223
Bq         1.9286287653    -1.0221989534     0.4764719482
Bq         1.8992588505    -0.9374439184     0.5858062618
Bq         1.9506165791    -0.9089886003     0.3946187137
Bq         1.8735799861    -0.9516715774     0.6814000359
Bq         1.9762954434    -0.8947609413     0.2990249396
Bq         1.8479011218    -0.9658992364     0.7769938100
Bq         2.0019743078    -0.8805332823     0.2034311655
Bq         1.8222222575    -0.9801268955     0.8725875841
Bq         2.0276531721    -0.8663056232     0.1078373914
Bq         1.7965433932    -0.9943545545     0.9681813582
Bq         2.0533320364    -0.8520779642     0.0122436173
Bq         1.9249377148    -0.9232162594     0.4902124878
Bq         1.8955677999    -0.8384612243     0.5995468014
Bq         1.9469255286    -0.8100059063     0.4083592532
Bq         1.8698889356    -0.8526888834     0.6951405755
Bq         1.9726043929    -0.7957782473     0.3127654791
Bq         1.8442100713    -0.8669165424     0.7907343496
Bq         1.9982832572    -0.7815505882     0.2171717050
Bq         1.8185312070    -0.8811442014     0.8863281237
Bq         2.0239621215    -0.7673229292     0.1215779309
Bq         1.7928523426    -0.8953718605     0.9819218978
Bq         2.0496409859    -0.7530952702     0.0259841568
Bq         1.9212466643    -0.8242335653     0.5039530273
Bq         1.8918767494    -0.7394785303     0.6132873410
Bq         1.9432344780    -0.7110232123     0.4220997928
Bq         1.8661978851    -0.7537061893     0.7088811151
Bq         1.9689133424    -0.6967955532     0.3265060187
Bq         1.8405190208    -0.7679338484     0.8044748892
Bq         1.9945922067    -0.6825678942     0.2309122446
Bq         1.8148401564    -0.7821615074     0.9000686633
Bq         2.0202710710    -0.6683402352     0.1353184705
Bq         1.7891612921    -0.7963891664     0.9956624373
Bq         2.0459499353    -0.6541125761     0.0397246964
Bq         1.9175556137    -0.7252508713     0.5176935669
Bq         1.8881856989    -0.6404958363     0.6270278805
Bq         1.9395434275    -0.6120405182     0.4358403323
Bq         1.8625068345    -0.6547234953     0.7226216546
Bq         1.9652222918    -0.5978128592     0.3402465582
Bq         1.8368279702    -0.6689511543     0.8182154287
Bq         1.9909011562    -0.5835852002     0.2446527841
Bq         1.8111491059    -0.6831788134     0.9138092028
Bq         2.0165800205    -0.5693575411     0.1490590101
Bq         1.7854702416    -0.6974064724     1.0094029769
Bq         2.0422588848    -0.5551298821     0.0534652360
Bq         1.9138645632    -0.6262681772     0.5314341064
Bq         1.8844946483    -0.5415131422     0.6407684201
Bq         1.9358523770    -0.5130578242     0.4495808719
Bq         1.8588157840    -0.5557408013     0.7363621942
Bq         1.9615312413    -0.4988301652     0.3539870978

1
2
3
4
5
6
7
8
9
10
11
12
13
14
15
16
17
18
19
20
21
22
23
24
25
26
27
28
29
30
31
32
33
34
35
36
37
38
39
40
41
42
43
44
45
46
47
48
49
50
51
52
53
54
55
56
57
58
59
60
61
62
63
64
65
66
67
68
69
70
71
72
73
74
75
76
77
78
79
80
81
82
83
84
85
86
87
88
89
90
91
92
93
94
95
96
97
98
99
100
101
102
103
104
105
106
107
108
109
110
111
112
113
114
115
116
117
118
119
120
121
122
123
124
125
126
127
128
129
130
131
132
133
134
135
136
137
138
139
140
141
142
143
144
145
146
147
148
149
150
151
152
153
154
155
156
157
158
159
160
161
162
163
164
165
166
167
168
169
170
171
172
173
174
175
176
177
178
179
180
181
182
183
184
185
186
187
188
189
190
191
192
193
194
195
196
197
198
199
200
201
202
203
204
205
206
207
208
209
210
211
212
213
214
215
216
217
218
219
220
221
222
223
224
225
226
227
228
229
230
231
232
233
234
235
236

