%nproc=8
%mem=1000MB
# rb3lyp/6-311+g** NMR geom=connectivity

Title

0 1
C    -4.0500558   -0.5771862    0.8136712
H    -5.0263804   -1.0082727    1.0024760
C    -3.9381552    0.6617804    0.2400876
H    -4.8252424    1.2338890   -0.0111295
C    -2.6768410    1.2433246    0.0057578
C    -1.4974121    0.5051527    0.2848253
C    -1.6508332   -0.7338728    0.9404026
H    -0.7713646   -1.2730967    1.2633753
C    -2.8898548   -1.2624035    1.1994307
H    -2.9683706   -2.2124563    1.7152676
C    -2.5773185    2.5963696   -0.4192930
H    -3.4870728    3.1412239   -0.6474055
C    -1.3741895    3.2147896   -0.4364030
H    -1.2997315    4.2742019   -0.6578144
C    -0.1719488    2.4994090   -0.1734588
C    -0.2043917    1.1018437    0.0192689
C     1.0513491    3.2042560   -0.0676222
H     1.0427344    4.2819499   -0.1896997
C     2.1942091    2.5487446    0.2579577
H     3.1168527    3.0912848    0.4334727
C     2.2216473    1.1336562    0.2934990
C     1.0486931    0.3945528    0.0302412
C     3.4483363    0.4614633    0.5573939
H     4.3095794    1.0606054    0.8334846
C     3.5427346   -0.8855926    0.4749463
H     4.4731467   -1.3939704    0.7038822
C     2.4490052   -1.6474447   -0.0196319
C     1.2150704   -1.0057258   -0.3013573
C     0.2531113   -1.7434440   -1.0216591
H    -0.6541356   -1.2535051   -1.3462847
C     0.4494193   -3.0628597   -1.3413779
H    -0.3083162   -3.5944309   -1.9054060
C     1.6251726   -3.7207967   -0.9552541
H     1.7670048   -4.7687404   -1.1927019
C     2.6109872   -3.0144177   -0.3183050
H     3.5525612   -3.4902813   -0.0646367
Bq        -0.3110206680     2.9510356687    -0.2492545531
Bq        -0.3455985000     3.1719795251     0.6225184597
Bq        -0.3071786867     2.9264863513    -0.3461182212
Bq        -0.3263885933     3.0492329382     0.1382001193
Bq        -0.3292576205     3.1707220875     0.2105337579
Bq        -0.3215736578     3.1216234528     0.0168064217
Bq        -0.3330996018     3.1952714049     0.3073974260
Bq        -0.3177316765     3.0970741354    -0.0800572464
Bq        -0.3369415831     3.2198207223     0.4042610941
Bq        -0.3138896951     3.0725248180    -0.1769209144
Bq        -0.3407835644     3.2443700397     0.5011247622
Bq        -0.3100477138     3.0479755006    -0.2737845825
Bq        -0.3446255458     3.2689193570     0.5979884303
Bq        -0.3062057325     3.0234261833    -0.3706482506
Bq        -0.3254156391     3.1461727701     0.1136700898
Bq        -0.3282846662     3.2676619195     0.1860037285
Bq        -0.3206007036     3.2185632847    -0.0077236077
Bq        -0.3321266476     3.2922112368     0.2828673966
Bq        -0.3167587222     3.1940139673    -0.1045872758
Bq        -0.3359686289     3.3167605542     0.3797310647
Bq        -0.3129167409     3.1694646500    -0.2014509439
Bq        -0.3398106102     3.3413098716     0.4765947328
Bq        -0.3090747596     3.1449153326    -0.2983146120
Bq        -0.3436525915     3.3658591890     0.5734584009
Bq        -0.3052327783     3.1203660152    -0.3951782800
Bq        -0.3244426849     3.2431126021     0.0891400604
Bq        -0.3273117120     3.3646017514     0.1614736991
Bq        -0.3196277493     3.3155031167    -0.0322536371
Bq        -0.3311536933     3.3891510688     0.2583373672
Bq        -0.3157857680     3.2909537993    -0.1291173052
Bq        -0.3349956747     3.4137003862     0.3552010352
Bq        -0.3119437867     3.2664044819    -0.2259809733
Bq        -0.3388376560     3.4382497035     0.4520647033
Bq        -0.3081018054     3.2418551645    -0.3228446414
Bq        -0.3426796373     3.4627990209     0.5489283714
Bq        -0.3042598240     3.2173058471    -0.4197083095
Bq        -0.3234697307     3.3400524340     0.0646100310
Bq        -0.3263387578     3.4615415833     0.1369436696
Bq        -0.3186547951     3.4124429486    -0.0567836665
Bq        -0.3301807391     3.4860909007     0.2338073377
Bq        -0.3148128138     3.3878936312    -0.1536473346
Bq        -0.3340227204     3.5106402181     0.3306710058
Bq        -0.3109708325     3.3633443138    -0.2505110027
Bq        -0.3378647018     3.5351895355     0.4275346739
Bq        -0.3071288511     3.3387949965    -0.3473746708
Bq        -0.3417066831     3.5597388528     0.5243983420
Bq        -0.3032868698     3.3142456791    -0.4442383389
Bq        -0.3224967765     3.4369922660     0.0400800015
Bq        -0.3253658036     3.5584814153     0.1124136402
Bq        -0.3176818409     3.5093827805    -0.0813136960
Bq        -0.3292077849     3.5830307327     0.2092773083
Bq        -0.3138398596     3.4848334632    -0.1781773641
Bq        -0.3330497662     3.6075800500     0.3061409764
Bq        -0.3099978782     3.4602841458    -0.2750410321
Bq        -0.3368917475     3.6321293674     0.4030046445
Bq        -0.3061558969     3.4357348284    -0.3719047002
Bq        -0.3407337289     3.6566786848     0.4998683126
Bq        -0.3023139156     3.4111855110    -0.4687683683
Bq        -0.3215238222     3.5339320979     0.0155499721
Bq        -0.3243928493     3.6554212472     0.0878836108
Bq        -0.3167088867     3.6063226125    -0.1058437254
Bq        -0.3282348307     3.6799705646     0.1847472789
Bq        -0.3128669053     3.5817732951    -0.2027073935
Bq        -0.3320768120     3.7045198820     0.2816109470
Bq        -0.3090249240     3.5572239777    -0.2995710616
Bq        -0.3359187933     3.7290691993     0.3784746151
Bq        -0.3051829427     3.5326746603    -0.3964347297
Bq        -0.3397607746     3.7536185167     0.4753382831
Bq        -0.3013409614     3.5081253430    -0.4932983978
Bq        -0.3205508680     3.6308719298    -0.0089800573
Bq        -0.3234198951     3.7523610792     0.0633535814
Bq        -0.3157359324     3.7032624444    -0.1303737548
Bq        -0.3272618764     3.7769103965     0.1602172494
Bq        -0.3118939511     3.6787131270    -0.2272374229
Bq        -0.3311038578     3.8014597139     0.2570809175
Bq        -0.3080519698     3.6541638097    -0.3241010910
Bq        -0.3349458391     3.8260090313     0.3539445856
Bq        -0.3042099885     3.6296144923    -0.4209647591
Bq        -0.3387878204     3.8505583487     0.4508082537
Bq        -0.3003680071     3.6050651749    -0.5178284272
Bq        -0.3195779138     3.7278117618    -0.0335100867
Bq        -0.3224469409     3.8493009111     0.0388235519
Bq        -0.3147629782     3.8002022763    -0.1549037843
Bq        -0.3262889222     3.8738502285     0.1356872200
Bq        -0.3109209969     3.7756529590    -0.2517674523
Bq        -0.3301309035     3.8983995458     0.2325508881
Bq        -0.3070790156     3.7511036416    -0.3486311204
Bq        -0.3339728849     3.9229488632     0.3294145562
Bq        -0.3032370342     3.7265543242    -0.4454947885
Bq        -0.3378148662     3.9474981806     0.4262782243
Bq        -0.2993950529     3.7020050068    -0.5423584566
Bq        -0.3186049596     3.8247515937    -0.0580401162
Bq        -0.3214739867     3.9462407430     0.0142935225
Bq        -0.3137900240     3.8971421083    -0.1794338137
Bq        -0.3253159680     3.9707900604     0.1111571906
Bq        -0.3099480427     3.8725927909    -0.2762974818
Bq        -0.3291579493     3.9953393778     0.2080208587
Bq        -0.3061060613     3.8480434735    -0.3731611499
Bq        -0.3329999306     4.0198886952     0.3048845268
Bq        -0.3022640800     3.8234941562    -0.4700248179
Bq        -0.3368419120     4.0444380125     0.4017481949
Bq        -0.2984220987     3.7989448388    -0.5668884860
Bq        -0.3176320053     3.9216914257    -0.0825701456
Bq        -0.3205010324     4.0431805750    -0.0102365069
Bq        -0.3128170698     3.9940819402    -0.2039638431
Bq        -0.3243430138     4.0677298924     0.0866271612
Bq        -0.3089750884     3.9695326228    -0.3008275112
Bq        -0.3281849951     4.0922792097     0.1834908293
Bq        -0.3051331071     3.9449833055    -0.3976911793
Bq        -0.3320269764     4.1168285271     0.2803544973
Bq        -0.3012911258     3.9204339881    -0.4945548474
Bq        -0.3358689577     4.1413778445     0.3772181654
Bq        -0.2974491445     3.8958846707    -0.5914185155
Bq        -0.3166590511     4.0186312576    -0.1071001750
Bq        -0.3195280782     4.1401204069    -0.0347665364
Bq        -0.3118441156     4.0910217722    -0.2284938725
Bq        -0.3233700595     4.1646697243     0.0620971317
Bq        -0.3080021342     4.0664724548    -0.3253575406
Bq        -0.3272120409     4.1892190417     0.1589607998
Bq        -0.3041601529     4.0419231374    -0.4222212087
Bq        -0.3310540222     4.2137683590     0.2558244679
Bq        -0.3003181716     4.0173738200    -0.5190848768
Bq        -0.3348960035     4.2383176764     0.3526881360
Bq        -0.2964761902     3.9928245027    -0.6159485449
Bq        -0.3156860969     4.1155710895    -0.1316302044
Bq        -0.3185551240     4.2370602389    -0.0592965658
Bq        -0.3108711613     4.1879616041    -0.2530239020
Bq        -0.3223971053     4.2616095562     0.0375671023
Bq        -0.3070291800     4.1634122867    -0.3498875700
Bq        -0.3262390866     4.2861588736     0.1344307704
Bq        -0.3031871987     4.1388629694    -0.4467512381
Bq        -0.3300810680     4.3107081910     0.2312944385
Bq        -0.2993452173     4.1143136520    -0.5436149062
Bq        -0.3339230493     4.3352575084     0.3281581066
Bq        -0.2955032360     4.0897643346    -0.6404785743
Bq        -0.3147131427     4.2125109215    -0.1561602339
Bq        -0.3175821698     4.3340000708    -0.0838265952
Bq        -0.3098982071     4.2849014360    -0.2775539314
Bq        -0.3214241511     4.3585493882     0.0130370729
Bq        -0.3060562258     4.2603521187    -0.3744175995
Bq        -0.3252661324     4.3830987055     0.1099007410
Bq        -0.3022142444     4.2358028013    -0.4712812676
Bq        -0.3291081137     4.4076480229     0.2067644091
Bq        -0.2983722631     4.2112534839    -0.5681449357
Bq        -0.3329500951     4.4321973403     0.3036280772
Bq        -0.2945302818     4.1867041665    -0.6650086037
Bq        -0.3137401884     4.3094507534    -0.1806902633
Bq        -0.3166092155     4.4309399027    -0.1083566246
Bq        -0.3089252529     4.3818412680    -0.3020839608
Bq        -0.3204511969     4.4554892201    -0.0114929565
Bq        -0.3050832715     4.3572919506    -0.3989476289
Bq        -0.3242931782     4.4800385375     0.0853707115
Bq        -0.3012412902     4.3327426332    -0.4958112970
Bq        -0.3281351595     4.5045878549     0.1822343796
Bq        -0.2973993089     4.3081933159    -0.5926749651
Bq        -0.3319771409     4.5291371722     0.2790980477
Bq        -0.2935573276     4.2836439985    -0.6895386332
Bq        -0.3127672342     4.4063905854    -0.2052202927
Bq        -0.2653354949    -0.4160516942     1.1221081106
Bq        -0.2576515323    -0.4651503290     0.9283807744
Bq        -0.2691774763    -0.3915023768     1.2189717787
Bq        -0.2538095509    -0.4896996464     0.8315171063
Bq        -0.2730194576    -0.3669530595     1.3158354468
Bq        -0.2499675696    -0.5142489637     0.7346534382
Bq        -0.2768614389    -0.3424037421     1.4126991149
Bq        -0.2461255883    -0.5387982811     0.6377897701
Bq        -0.2807034202    -0.3178544247     1.5095627829
Bq        -0.2422836069    -0.5633475985     0.5409261020
Bq        -0.2614935136    -0.4406010116     1.0252444425
Bq        -0.2643625407    -0.3191118623     1.0975780812
Bq        -0.2566785780    -0.3682104970     0.9038507450
Bq        -0.2682045220    -0.2945625449     1.1944417492
Bq        -0.2528365967    -0.3927598144     0.8069870769
Bq        -0.2720465034    -0.2700132275     1.2913054173
Bq        -0.2489946154    -0.4173091318     0.7101234088
Bq        -0.2758884847    -0.2454639102     1.3881690854
Bq        -0.2451526341    -0.4418584492     0.6132597407
Bq        -0.2797304660    -0.2209145928     1.4850327535
Bq        -0.2413106527    -0.4664077665     0.5163960726
Bq        -0.2605205594    -0.3436611797     1.0007144131
Bq        -0.2633895865    -0.2221720303     1.0730480517
Bq        -0.2557056238    -0.2712706651     0.8793207156
Bq        -0.2672315678    -0.1976227130     1.1699117198
Bq        -0.2518636425    -0.2958199825     0.7824570475
Bq        -0.2710735491    -0.1730733956     1.2667753879
Bq        -0.2480216612    -0.3203692998     0.6855933794
Bq        -0.2749155305    -0.1485240782     1.3636390560
Bq        -0.2441796798    -0.3449186172     0.5887297113
Bq        -0.2787575118    -0.1239747608     1.4605027241
Bq        -0.2403376985    -0.3694679346     0.4918660432
Bq        -0.2595476051    -0.2467213477     0.9761843836
Bq        -0.2624166323    -0.1252321984     1.0485180223
Bq        -0.2547326696    -0.1743308332     0.8547906861
Bq        -0.2662586136    -0.1006828810     1.1453816904
Bq        -0.2508906883    -0.1988801505     0.7579270180
Bq        -0.2701005949    -0.0761335637     1.2422453585
Bq        -0.2470487069    -0.2234294679     0.6610633499
Bq        -0.2739425762    -0.0515842463     1.3391090266
Bq        -0.2432067256    -0.2479787853     0.5641996819
Bq        -0.2777845576    -0.0270349289     1.4359726947

1
2
3
4
5
6
7
8
9
10
11
12
13
14
15
16
17
18
19
20
21
22
23
24
25
26
27
28
29
30
31
32
33
34
35
36
37
38
39
40
41
42
43
44
45
46
47
48
49
50
51
52
53
54
55
56
57
58
59
60
61
62
63
64
65
66
67
68
69
70
71
72
73
74
75
76
77
78
79
80
81
82
83
84
85
86
87
88
89
90
91
92
93
94
95
96
97
98
99
100
101
102
103
104
105
106
107
108
109
110
111
112
113
114
115
116
117
118
119
120
121
122
123
124
125
126
127
128
129
130
131
132
133
134
135
136
137
138
139
140
141
142
143
144
145
146
147
148
149
150
151
152
153
154
155
156
157
158
159
160
161
162
163
164
165
166
167
168
169
170
171
172
173
174
175
176
177
178
179
180
181
182
183
184
185
186
187
188
189
190
191
192
193
194
195
196
197
198
199
200
201
202
203
204
205
206
207
208
209
210
211
212
213
214
215
216
217
218
219
220
221
222
223
224
225
226
227
228
229
230
231
232
233
234
235
236

