%nproc=8
%mem=1000MB
# rb3lyp/6-311+g** NMR geom=connectivity

Title

0 1
C    -4.0500558   -0.5771862    0.8136712
H    -5.0263804   -1.0082727    1.0024760
C    -3.9381552    0.6617804    0.2400876
H    -4.8252424    1.2338890   -0.0111295
C    -2.6768410    1.2433246    0.0057578
C    -1.4974121    0.5051527    0.2848253
C    -1.6508332   -0.7338728    0.9404026
H    -0.7713646   -1.2730967    1.2633753
C    -2.8898548   -1.2624035    1.1994307
H    -2.9683706   -2.2124563    1.7152676
C    -2.5773185    2.5963696   -0.4192930
H    -3.4870728    3.1412239   -0.6474055
C    -1.3741895    3.2147896   -0.4364030
H    -1.2997315    4.2742019   -0.6578144
C    -0.1719488    2.4994090   -0.1734588
C    -0.2043917    1.1018437    0.0192689
C     1.0513491    3.2042560   -0.0676222
H     1.0427344    4.2819499   -0.1896997
C     2.1942091    2.5487446    0.2579577
H     3.1168527    3.0912848    0.4334727
C     2.2216473    1.1336562    0.2934990
C     1.0486931    0.3945528    0.0302412
C     3.4483363    0.4614633    0.5573939
H     4.3095794    1.0606054    0.8334846
C     3.5427346   -0.8855926    0.4749463
H     4.4731467   -1.3939704    0.7038822
C     2.4490052   -1.6474447   -0.0196319
C     1.2150704   -1.0057258   -0.3013573
C     0.2531113   -1.7434440   -1.0216591
H    -0.6541356   -1.2535051   -1.3462847
C     0.4494193   -3.0628597   -1.3413779
H    -0.3083162   -3.5944309   -1.9054060
C     1.6251726   -3.7207967   -0.9552541
H     1.7670048   -4.7687404   -1.1927019
C     2.6109872   -3.0144177   -0.3183050
H     3.5525612   -3.4902813   -0.0646367
Bq         1.9604941814     2.6324313800     0.5613211760
Bq         1.9170663223     2.6471718353     0.8577950198
Bq         1.9749701344     2.6275178949     0.4624965614
Bq         1.9025903692     2.6520853203     0.9566196344
Bq         1.9894460875     2.6226044098     0.3636719468
Bq         1.8881144162     2.6569988054     1.0554442489
Bq         2.0039220405     2.6176909248     0.2648473323
Bq         1.8736384631     2.6619122905     1.1542688635
Bq         2.0183979936     2.6127774397     0.1660227177
Bq         1.9460182284     2.6373448651     0.6601457906
Bq         1.9322544093     2.7421375656     0.7541088004
Bq         1.9612063153     2.7323105954     0.5564595712
Bq         1.9177784562     2.7470510506     0.8529334150
Bq         1.9756822684     2.7273971103     0.4576349567
Bq         1.9033025032     2.7519645357     0.9517580296
Bq         1.9901582214     2.7224836252     0.3588103421
Bq         1.8888265501     2.7568780208     1.0505826442
Bq         2.0046341745     2.7175701401     0.2599857275
Bq         1.8743505971     2.7617915059     1.1494072588
Bq         2.0191101275     2.7126566551     0.1611611129
Bq         1.9467303623     2.7372240805     0.6552841858
Bq         1.9329665432     2.8420167809     0.7492471956
Bq         1.9619184493     2.8321898108     0.5515979665
Bq         1.9184905902     2.8469302660     0.8480718102
Bq         1.9763944023     2.8272763257     0.4527733519
Bq         1.9040146371     2.8518437511     0.9468964248
Bq         1.9908703554     2.8223628406     0.3539487373
Bq         1.8895386841     2.8567572362     1.0457210394
Bq         2.0053463084     2.8174493555     0.2551241227
Bq         1.8750627310     2.8616707213     1.1445456540
Bq         2.0198222615     2.8125358704     0.1562995081
Bq         1.9474424962     2.8371032959     0.6504225811
Bq         1.9336786771     2.9418959963     0.7443855909
Bq         1.9626305832     2.9320690261     0.5467363617
Bq         1.9192027241     2.9468094814     0.8432102055
Bq         1.9771065363     2.9271555411     0.4479117471
Bq         1.9047267711     2.9517229665     0.9420348201
Bq         1.9915824893     2.9222420560     0.3490871325
Bq         1.8902508180     2.9566364516     1.0408594346
Bq         2.0060584424     2.9173285709     0.2502625180
Bq         1.8757748650     2.9615499366     1.1396840492
Bq         2.0205343954     2.9124150858     0.1514379034
Bq         1.9481546302     2.9369825112     0.6455609763
Bq         1.9343908111     3.0417752117     0.7395239861
Bq         1.9633427172     3.0319482415     0.5418747569
Bq         1.9199148580     3.0466886968     0.8383486007
Bq         1.9778186702     3.0270347564     0.4430501424
Bq         1.9054389050     3.0516021819     0.9371732153
Bq         1.9922946233     3.0221212714     0.3442255278
Bq         1.8909629520     3.0565156669     1.0359978299
Bq         2.0067705763     3.0172077863     0.2454009132
Bq         1.8764869989     3.0614291520     1.1348224445
Bq         2.0212465293     3.0122943012     0.1465762986
Bq         1.9488667641     3.0368617266     0.6406993715
Bq         1.9351029450     3.1416544271     0.7346623814
Bq         1.9640548511     3.1318274569     0.5370131522
Bq         1.9206269920     3.1465679121     0.8334869959
Bq         1.9785308042     3.1269139718     0.4381885376
Bq         1.9061510389     3.1514813972     0.9323116105
Bq         1.9930067572     3.1220004867     0.3393639230
Bq         1.8916750859     3.1563948823     1.0311362251
Bq         2.0074827102     3.1170870017     0.2405393084
Bq         1.8771991328     3.1613083674     1.1299608397
Bq         2.0219586633     3.1121735166     0.1417146938
Bq         1.9495788981     3.1367409420     0.6358377668
Bq         1.9358150790     3.2415336424     0.7298007766
Bq         1.9647669851     3.2317066723     0.5321515474
Bq         1.9213391259     3.2464471275     0.8286253912
Bq         1.9792429381     3.2267931872     0.4333269328
Bq         1.9068631729     3.2513606126     0.9274500058
Bq         1.9937188911     3.2218797021     0.3345023182
Bq         1.8923872198     3.2562740977     1.0262746203
Bq         2.0081948442     3.2169662170     0.2356777037
Bq         1.8779112668     3.2611875828     1.1250992349
Bq         2.0226707972     3.2120527319     0.1368530891
Bq         1.9502910320     3.2366201574     0.6309761620
Bq         1.9365272129     3.3414128578     0.7249391718
Bq         1.9654791190     3.3315858877     0.5272899426
Bq         1.9220512599     3.3463263429     0.8237637864
Bq         1.9799550720     3.3266724026     0.4284653281
Bq         1.9075753068     3.3512398280     0.9225884010
Bq         1.9944310251     3.3217589175     0.3296407135
Bq         1.8930993538     3.3561533131     1.0214130156
Bq         2.0089069781     3.3168454324     0.2308160989
Bq         1.8786234007     3.3610667981     1.1202376302
Bq         2.0233829312     3.3119319473     0.1319914843
Bq         1.9510031660     3.3364993727     0.6261145572
Bq         1.9372393469     3.4412920732     0.7200775671
Bq         1.9661912529     3.4314651030     0.5224283379
Bq         1.9227633938     3.4462055583     0.8189021816
Bq         1.9806672060     3.4265516179     0.4236037233
Bq         1.9082874408     3.4511190434     0.9177267962
Bq         1.9951431590     3.4216381329     0.3247791087
Bq         1.8938114877     3.4560325284     1.0165514108
Bq         2.0096191121     3.4167246478     0.2259544941
Bq         1.8793355347     3.4609460135     1.1153760254
Bq         2.0240950651     3.4118111627     0.1271298795
Bq         1.9517152999     3.4363785881     0.6212529525
Bq         1.9379514808     3.5411712886     0.7152159623
Bq         1.9669033869     3.5313443184     0.5175667331
Bq         1.9234755277     3.5460847737     0.8140405769
Bq         1.9813793399     3.5264308333     0.4187421185
Bq         1.9089995747     3.5509982587     0.9128651915
Bq         1.9958552930     3.5215173482     0.3199175039
Bq         1.8945236217     3.5559117438     1.0116898060
Bq         2.0103312460     3.5166038632     0.2210928894
Bq         1.8800476686     3.5608252289     1.1105144206
Bq         2.0248071991     3.5116903781     0.1222682748
Bq         1.9524274338     3.5362578035     0.6163913477
Bq         1.9386636147     3.6410505039     0.7103543575
Bq         1.9676155208     3.6312235338     0.5127051283
Bq         1.9241876617     3.6459639890     0.8091789721
Bq         1.9820914739     3.6263100487     0.4138805138
Bq         1.9097117086     3.6508774741     0.9080035867
Bq         1.9965674269     3.6213965636     0.3150558992
Bq         1.8952357556     3.6557909592     1.0068282013
Bq         2.0110433800     3.6164830785     0.2162312846
Bq         1.8807598026     3.6607044443     1.1056528159
Bq         2.0255193330     3.6115695935     0.1174066700
Bq         1.9531395678     3.6361370189     0.6115297429
Bq         1.9393757487     3.7409297193     0.7054927528
Bq         1.9683276548     3.7311027492     0.5078435236
Bq         1.9248997956     3.7458432044     0.8043173673
Bq         1.9828036078     3.7261892641     0.4090189090
Bq         1.9104238426     3.7507566895     0.9031419819
Bq         1.9972795609     3.7212757790     0.3101942944
Bq         1.8959478895     3.7556701746     1.0019665965
Bq         2.0117555139     3.7163622939     0.2113696798
Bq         1.8814719365     3.7605836597     1.1007912111
Bq         2.0262314669     3.7114488088     0.1125450652
Bq         1.9538517017     3.7360162342     0.6066681382
Bq         1.9400878826     3.8408089347     0.7006311480
Bq         1.9690397887     3.8309819645     0.5029819188
Bq         1.9256119296     3.8457224198     0.7994557626
Bq         1.9835157417     3.8260684795     0.4041573042
Bq         1.9111359765     3.8506359049     0.8982803772
Bq         1.9979916948     3.8211549944     0.3053326896
Bq         1.8966600235     3.8555493900     0.9971049917
Bq         2.0124676478     3.8162415093     0.2065080751
Bq         1.8821840704     3.8604628750     1.0959296063
Bq         2.0269436009     3.8113280242     0.1076834605
Bq         1.9545638357     3.8358954496     0.6018065334
Bq         1.9408000166     3.9406881501     0.6957695432
Bq         1.9697519226     3.9308611799     0.4981203140
Bq         1.9263240635     3.9456016352     0.7945941578
Bq         1.9842278757     3.9259476948     0.3992956995
Bq         1.9118481105     3.9505151202     0.8934187724
Bq         1.9987038287     3.9210342098     0.3004710849
Bq         1.8973721574     3.9554286053     0.9922433870
Bq         2.0131797818     3.9161207247     0.2016464703
Bq         1.8828962044     3.9603420904     1.0910680016
Bq         2.0276557348     3.9112072396     0.1028218557
Bq         1.9552759696     3.9357746650     0.5969449286
Bq         1.9415121505     4.0405673655     0.6909079385
Bq         1.9704640566     4.0307403953     0.4932587093
Bq         1.9270361975     4.0454808505     0.7897325530
Bq         1.9849400096     4.0258269102     0.3944340947
Bq         1.9125602444     4.0503943356     0.8885571676
Bq         1.9994159627     4.0209134251     0.2956094801
Bq         1.8980842914     4.0553078207     0.9873817822
Bq         2.0138919157     4.0159999400     0.1967848655
Bq         1.8836083383     4.0602213058     1.0862063968
Bq         2.0283678688     4.0110864550     0.0979602509
Bq         1.9559881035     4.0356538804     0.5920833239
Bq         1.9422242844     4.1404465808     0.6860463337
Bq         1.9711761905     4.1306196107     0.4883971045
Bq         1.9277483314     4.1453600659     0.7848709483
Bq         1.9856521436     4.1257061256     0.3895724899
Bq         1.9132723784     4.1502735510     0.8836955629
Bq         2.0001280966     4.1207926405     0.2907478753
Bq         1.8987964253     4.1551870361     0.9825201774
Bq         2.0146040497     4.1158791554     0.1919232608
Bq         1.8843204723     4.1601005212     1.0813447920
Bq         2.0290800027     4.1109656703     0.0930986462
Bq         1.9567002375     4.1355330958     0.5872217191
Bq         1.9429364184     4.2403257962     0.6811847289
Bq         1.9718883245     4.2304988260     0.4835354997
Bq         1.9284604653     4.2452392813     0.7800093435
Bq         1.9863642775     4.2255853410     0.3847108852
Bq         1.9139845123     4.2501527664     0.8788339581
Bq         2.0008402306     4.2206718559     0.2858862706
Bq         1.8995085593     4.2550662515     0.9776585727
Bq         2.0153161836     4.2157583708     0.1870616560
Bq         1.8850326062     4.2599797365     1.0764831873
Bq         2.0297921366     4.2108448857     0.0882370414
Bq         1.9574123714     4.2354123111     0.5823601143
Bq         1.9436485523     4.3402050116     0.6763231242
Bq         1.9726004584     4.3303780414     0.4786738950
Bq         1.9291725993     4.3451184967     0.7751477387
Bq         1.9870764115     4.3254645563     0.3798492804
Bq         1.9146966462     4.3500319818     0.8739723533
Bq         2.0015523645     4.3205510713     0.2810246658
Bq         1.9002206932     4.3549454668     0.9727969679
Bq         2.0160283175     4.3156375862     0.1822000512
Bq         1.8857447401     4.3598589519     1.0716215825
Bq         2.0305042706     4.3107241011     0.0833754366
Bq         1.9581245054     4.3352915265     0.5774985096
Bq         2.0069859791    -0.6537557573     0.9338968214
Bq         2.0359378852    -0.6635827274     0.7362475922
Bq         1.9925100261    -0.6488422722     1.0327214360

1
2
3
4
5
6
7
8
9
10
11
12
13
14
15
16
17
18
19
20
21
22
23
24
25
26
27
28
29
30
31
32
33
34
35
36
37
38
39
40
41
42
43
44
45
46
47
48
49
50
51
52
53
54
55
56
57
58
59
60
61
62
63
64
65
66
67
68
69
70
71
72
73
74
75
76
77
78
79
80
81
82
83
84
85
86
87
88
89
90
91
92
93
94
95
96
97
98
99
100
101
102
103
104
105
106
107
108
109
110
111
112
113
114
115
116
117
118
119
120
121
122
123
124
125
126
127
128
129
130
131
132
133
134
135
136
137
138
139
140
141
142
143
144
145
146
147
148
149
150
151
152
153
154
155
156
157
158
159
160
161
162
163
164
165
166
167
168
169
170
171
172
173
174
175
176
177
178
179
180
181
182
183
184
185
186
187
188
189
190
191
192
193
194
195
196
197
198
199
200
201
202
203
204
205
206
207
208
209
210
211
212
213
214
215
216
217
218
219
220
221
222
223
224
225
226
227
228
229
230
231
232
233
234
235
236

