%nproc=8
%mem=1000MB
# rb3lyp/6-311+g** NMR geom=connectivity

Title

0 1
C    -4.0500558   -0.5771862    0.8136712
H    -5.0263804   -1.0082727    1.0024760
C    -3.9381552    0.6617804    0.2400876
H    -4.8252424    1.2338890   -0.0111295
C    -2.6768410    1.2433246    0.0057578
C    -1.4974121    0.5051527    0.2848253
C    -1.6508332   -0.7338728    0.9404026
H    -0.7713646   -1.2730967    1.2633753
C    -2.8898548   -1.2624035    1.1994307
H    -2.9683706   -2.2124563    1.7152676
C    -2.5773185    2.5963696   -0.4192930
H    -3.4870728    3.1412239   -0.6474055
C    -1.3741895    3.2147896   -0.4364030
H    -1.2997315    4.2742019   -0.6578144
C    -0.1719488    2.4994090   -0.1734588
C    -0.2043917    1.1018437    0.0192689
C     1.0513491    3.2042560   -0.0676222
H     1.0427344    4.2819499   -0.1896997
C     2.1942091    2.5487446    0.2579577
H     3.1168527    3.0912848    0.4334727
C     2.2216473    1.1336562    0.2934990
C     1.0486931    0.3945528    0.0302412
C     3.4483363    0.4614633    0.5573939
H     4.3095794    1.0606054    0.8334846
C     3.5427346   -0.8855926    0.4749463
H     4.4731467   -1.3939704    0.7038822
C     2.4490052   -1.6474447   -0.0196319
C     1.2150704   -1.0057258   -0.3013573
C     0.2531113   -1.7434440   -1.0216591
H    -0.6541356   -1.2535051   -1.3462847
C     0.4494193   -3.0628597   -1.3413779
H    -0.3083162   -3.5944309   -1.9054060
C     1.6251726   -3.7207967   -0.9552541
H     1.7670048   -4.7687404   -1.1927019
C     2.6109872   -3.0144177   -0.3183050
H     3.5525612   -3.4902813   -0.0646367
Bq        -1.0830839980    -1.3853055768    -1.1635723115
Bq        -1.2823928169    -1.5183838324    -0.7247486880
Bq        -1.0432222342    -1.3586899257    -1.2513370362
Bq        -1.3222545807    -1.5449994835    -0.6369839633
Bq        -1.0033604704    -1.3320742746    -1.3391017610
Bq        -1.3621163445    -1.5716151346    -0.5492192385
Bq        -0.9634987066    -1.3054586235    -1.4268664857
Bq        -1.1628075255    -1.4385368790    -0.9880428621
Bq        -1.2136757627    -1.3687595474    -0.8760448869
Bq        -1.1339522351    -1.3155282452    -1.0515743364
Bq        -1.2535375265    -1.3953751985    -0.7882801622
Bq        -1.0940904713    -1.2889125941    -1.1393390611
Bq        -1.2933992903    -1.4219908496    -0.7005154375
Bq        -1.0542287075    -1.2622969430    -1.2271037858
Bq        -1.3332610541    -1.4486065008    -0.6127507128
Bq        -1.0143669438    -1.2356812919    -1.3148685105
Bq        -1.3731228178    -1.4752221519    -0.5249859881
Bq        -0.9745051800    -1.2090656408    -1.4026332352
Bq        -1.1738139989    -1.3421438963    -0.9638096116
Bq        -1.2246822361    -1.2723665647    -0.8518116365
Bq        -1.1449587085    -1.2191352625    -1.0273410859
Bq        -1.2645439999    -1.2989822158    -0.7640469118
Bq        -1.1050969447    -1.1925196114    -1.1151058106
Bq        -1.3044057636    -1.3255978669    -0.6762821871
Bq        -1.0652351809    -1.1659039603    -1.2028705353
Bq        -1.3442675274    -1.3522135180    -0.5885174623
Bq        -1.0253734171    -1.1392883092    -1.2906352600
Bq        -1.3841292912    -1.3788291691    -0.5007527376
Bq        -0.9855116533    -1.1126726581    -1.3783999848
Bq        -1.1848204723    -1.2457509136    -0.9395763612
Bq        -1.2356887094    -1.1759735820    -0.8275783860
Bq        -1.1559651819    -1.1227422798    -1.0031078354
Bq        -1.2755504732    -1.2025892331    -0.7398136613
Bq        -1.1161034181    -1.0961266287    -1.0908725602
Bq        -1.3154122370    -1.2292048842    -0.6520489366
Bq        -1.0762416543    -1.0695109776    -1.1786372849
Bq        -1.3552740008    -1.2558205353    -0.5642842119
Bq        -1.0363798905    -1.0428953265    -1.2664020096
Bq        -1.3951357646    -1.2824361864    -0.4765194872
Bq        -0.9965181267    -1.0162796754    -1.3541667343
Bq        -1.1958269457    -1.1493579309    -0.9153431107
Bq        -1.2466951828    -1.0795805993    -0.8033451356
Bq        -1.1669716552    -1.0263492971    -0.9788745850
Bq        -1.2865569466    -1.1061962504    -0.7155804108
Bq        -1.1271098914    -0.9997336460    -1.0666393097
Bq        -1.3264187104    -1.1328119015    -0.6278156861
Bq        -1.0872481277    -0.9731179949    -1.1544040344
Bq        -1.3662804742    -1.1594275526    -0.5400509614
Bq        -1.0473863639    -0.9465023438    -1.2421687591
Bq        -1.4061422380    -1.1860432037    -0.4522862367
Bq        -1.0075246001    -0.9198866927    -1.3299334838
Bq        -1.2068334190    -1.0529649482    -0.8911098603
Bq        -1.2577016562    -0.9831876166    -0.7791118851
Bq        -1.1779781286    -0.9299563144    -0.9546413345
Bq        -1.2975634200    -1.0098032677    -0.6913471604
Bq        -1.1381163648    -0.9033406633    -1.0424060592
Bq        -1.3374251838    -1.0364189188    -0.6035824357
Bq        -1.0982546010    -0.8767250122    -1.1301707840
Bq        -1.3772869475    -1.0630345699    -0.5158177110
Bq        -1.0583928372    -0.8501093610    -1.2179355087
Bq        -1.4171487113    -1.0896502210    -0.4280529863
Bq        -1.0185310735    -0.8234937099    -1.3057002334
Bq        -1.2178398924    -0.9565719655    -0.8668766098
Bq        -1.2687081296    -0.8867946339    -0.7548786346
Bq        -1.1889846020    -0.8335633317    -0.9304080841
Bq        -1.3085698933    -0.9134102850    -0.6671139099
Bq        -1.1491228382    -0.8069476805    -1.0181728088
Bq        -1.3484316571    -0.9400259361    -0.5793491852
Bq        -1.1092610744    -0.7803320294    -1.1059375335
Bq        -1.3882934209    -0.9666415872    -0.4915844605
Bq        -1.0693993106    -0.7537163783    -1.1937022582
Bq        -1.4281551847    -0.9932572383    -0.4038197358
Bq        -1.0295375468    -0.7271007272    -1.2814669829
Bq        -1.2288463658    -0.8601789828    -0.8426433594
Bq        -1.2797146029    -0.7904016512    -0.7306453842
Bq        -1.1999910754    -0.7371703489    -0.9061748336
Bq        -1.3195763667    -0.8170173023    -0.6428806595
Bq        -1.1601293116    -0.7105546978    -0.9939395583
Bq        -1.3594381305    -0.8436329534    -0.5551159348
Bq        -1.1202675478    -0.6839390467    -1.0817042830
Bq        -1.3992998943    -0.8702486045    -0.4673512101
Bq        -1.0804057840    -0.6573233956    -1.1694690078
Bq        -1.4391616581    -0.8968642556    -0.3795864853
Bq        -1.0405440202    -0.6307077445    -1.2572337325
Bq        -1.2398528391    -0.7637860000    -0.8184101089
Bq        -1.2907210763    -0.6940086684    -0.7064121337
Bq        -1.2109975487    -0.6407773662    -0.8819415832
Bq        -1.3305828401    -0.7206243196    -0.6186474090
Bq        -1.1711357849    -0.6141617151    -0.9697063079
Bq        -1.3704446039    -0.7472399707    -0.5308826843
Bq        -1.1312740211    -0.5875460640    -1.0574710326
Bq        -1.4103063677    -0.7738556218    -0.4431179596
Bq        -1.0914122574    -0.5609304129    -1.1452357573
Bq        -1.4501681314    -0.8004712729    -0.3553532349
Bq        -1.0515504936    -0.5343147618    -1.2330004820
Bq        -1.2508593125    -0.6673930173    -0.7941768584
Bq        -1.3017275497    -0.5976156857    -0.6821788833
Bq        -1.2220040221    -0.5443843835    -0.8577083327
Bq        -1.3415893135    -0.6242313368    -0.5944141586
Bq        -1.1821422583    -0.5177687324    -0.9454730574
Bq        -1.3814510772    -0.6508469879    -0.5066494338
Bq        -1.1422804945    -0.4911530813    -1.0332377821
Bq        -1.4213128410    -0.6774626391    -0.4188847091
Bq        -1.1024187307    -0.4645374302    -1.1210025068
Bq        -1.4611746048    -0.7040782902    -0.3311199844
Bq        -1.0625569669    -0.4379217791    -1.2087672315
Bq        -1.2618657859    -0.5710000346    -0.7699436080
Bq        -1.3127340230    -0.5012227030    -0.6579456328
Bq        -1.2330104955    -0.4479914008    -0.8334750822
Bq        -1.3525957868    -0.5278383541    -0.5701809081
Bq        -1.1931487317    -0.4213757497    -0.9212398070
Bq        -1.3924575506    -0.5544540052    -0.4824161834
Bq        -1.1532869679    -0.3947600986    -1.0090045317
Bq        -1.4323193144    -0.5810696563    -0.3946514587
Bq        -1.1134252041    -0.3681444475    -1.0967692564
Bq        -1.4721810782    -0.6076853074    -0.3068867340
Bq        -1.0735634403    -0.3415287964    -1.1845339811
Bq        -1.2728722593    -0.4746070519    -0.7457103575
Bq        -1.3237404964    -0.4048297203    -0.6337123824
Bq        -1.2440169688    -0.3515984181    -0.8092418318
Bq        -1.3636022602    -0.4314453714    -0.5459476576
Bq        -1.2041552051    -0.3249827670    -0.8970065565
Bq        -1.4034640240    -0.4580610225    -0.4581829329
Bq        -1.1642934413    -0.2983671159    -0.9847712812
Bq        -1.4433257878    -0.4846766736    -0.3704182082
Bq        -1.1244316775    -0.2717514648    -1.0725360059
Bq        -1.4831875516    -0.5112923247    -0.2826534835
Bq        -1.0845699137    -0.2451358137    -1.1603007306
Bq        -1.2838787326    -0.3782140692    -0.7214771071
Bq        -1.3347469698    -0.3084367376    -0.6094791319
Bq        -1.2550234422    -0.2552054354    -0.7850085813
Bq        -1.3746087336    -0.3350523887    -0.5217144072
Bq        -1.2151616784    -0.2285897843    -0.8727733060
Bq        -1.4144704974    -0.3616680398    -0.4339496825
Bq        -1.1752999146    -0.2019741332    -0.9605380307
Bq        -1.4543322612    -0.3882836909    -0.3461849578
Bq        -1.1354381509    -0.1753584821    -1.0483027555
Bq        -1.4941940249    -0.4148993420    -0.2584202330
Bq        -1.0955763871    -0.1487428310    -1.1360674802
Bq        -1.2948852060    -0.2818210865    -0.6972438566
Bq        -1.3457534432    -0.2120437549    -0.5852458814
Bq        -1.2660299156    -0.1588124527    -0.7607753309
Bq        -1.3856152069    -0.2386594060    -0.4974811567
Bq        -1.2261681518    -0.1321968016    -0.8485400556
Bq        -1.4254769707    -0.2652750571    -0.4097164320
Bq        -1.1863063880    -0.1055811505    -0.9363047803
Bq        -1.4653387345    -0.2918907082    -0.3219517073
Bq        -1.1464446242    -0.0789654993    -1.0240695050
Bq        -1.5052004983    -0.3185063593    -0.2341869826
Bq        -1.1065828604    -0.0523498482    -1.1118342297
Bq        -1.3058916794    -0.1854281038    -0.6730106062
Bq        -1.3567599165    -0.1156507722    -0.5610126310
Bq        -1.2770363890    -0.0624194700    -0.7365420804
Bq        -1.3966216803    -0.1422664233    -0.4732479063
Bq        -1.2371746252    -0.0358038189    -0.8243068051
Bq        -1.4364834441    -0.1688820744    -0.3854831816
Bq        -1.1973128614    -0.0091881677    -0.9120715298
Bq        -1.4763452079    -0.1954977255    -0.2977184568
Bq        -1.1574510976     0.0174274834    -0.9998362545
Bq        -1.5162069717    -0.2221133766    -0.2099537321
Bq        -1.1175893338     0.0440431345    -1.0876009793
Bq        -1.3168981527    -0.0890351211    -0.6487773557
Bq        -0.7153873746    -4.9352999078    -1.7313217663
Bq        -0.6356638470    -4.8820686056    -1.9068512157
Bq        -0.7552491384    -4.9619155589    -1.6435570415
Bq        -0.5958020833    -4.8554529545    -1.9946159404
Bq        -0.7951109022    -4.9885312100    -1.5557923168
Bq        -0.5559403195    -4.8288373034    -2.0823806651
Bq        -0.8349726660    -5.0151468611    -1.4680275921
Bq        -0.5160785557    -4.8022216522    -2.1701453898
Bq        -0.8748344298    -5.0417625122    -1.3802628674
Bq        -0.4762167919    -4.7756060011    -2.2579101145
Bq        -0.6755256108    -4.9086842567    -1.8190864910
Bq        -0.7263938480    -4.8389069251    -1.7070885158
Bq        -0.6466703204    -4.7856756229    -1.8826179652
Bq        -0.7662556118    -4.8655225762    -1.6193237911
Bq        -0.6068085566    -4.7590599717    -1.9703826899
Bq        -0.8061173756    -4.8921382273    -1.5315590664
Bq        -0.5669467928    -4.7324443206    -2.0581474146
Bq        -0.8459791393    -4.9187538784    -1.4437943417
Bq        -0.5270850290    -4.7058286695    -2.1459121394
Bq        -0.8858409031    -4.9453695295    -1.3560296169
Bq        -0.4872232653    -4.6792130184    -2.2336768641
Bq        -0.6865320842    -4.8122912740    -1.7948532405
Bq        -0.7374003214    -4.7425139424    -1.6828552653
Bq        -0.6576767938    -4.6892826401    -1.8583847148
Bq        -0.7772620851    -4.7691295935    -1.5950905406
Bq        -0.6178150300    -4.6626669890    -1.9461494395
Bq        -0.8171238489    -4.7957452446    -1.5073258159
Bq        -0.5779532662    -4.6360513379    -2.0339141642
Bq        -0.8569856127    -4.8223608957    -1.4195610912
Bq        -0.5380915024    -4.6094356868    -2.1216788889
Bq        -0.8968473765    -4.8489765468    -1.3317963665
Bq        -0.4982297386    -4.5828200357    -2.2094436136
Bq        -0.6975385576    -4.7158982912    -1.7706199901
Bq        -0.7484067947    -4.6461209596    -1.6586220149
Bq        -0.6686832672    -4.5928896574    -1.8341514643
Bq        -0.7882685585    -4.6727366108    -1.5708572902
Bq        -0.6288215034    -4.5662740063    -1.9219161890
Bq        -0.8281303223    -4.6993522619    -1.4830925655

1
2
3
4
5
6
7
8
9
10
11
12
13
14
15
16
17
18
19
20
21
22
23
24
25
26
27
28
29
30
31
32
33
34
35
36
37
38
39
40
41
42
43
44
45
46
47
48
49
50
51
52
53
54
55
56
57
58
59
60
61
62
63
64
65
66
67
68
69
70
71
72
73
74
75
76
77
78
79
80
81
82
83
84
85
86
87
88
89
90
91
92
93
94
95
96
97
98
99
100
101
102
103
104
105
106
107
108
109
110
111
112
113
114
115
116
117
118
119
120
121
122
123
124
125
126
127
128
129
130
131
132
133
134
135
136
137
138
139
140
141
142
143
144
145
146
147
148
149
150
151
152
153
154
155
156
157
158
159
160
161
162
163
164
165
166
167
168
169
170
171
172
173
174
175
176
177
178
179
180
181
182
183
184
185
186
187
188
189
190
191
192
193
194
195
196
197
198
199
200
201
202
203
204
205
206
207
208
209
210
211
212
213
214
215
216
217
218
219
220
221
222
223
224
225
226
227
228
229
230
231
232
233
234
235
236

