%nproc=8
%mem=1000MB
# rb3lyp/6-311+g** NMR geom=connectivity

Title

0 1
C    -4.0500558   -0.5771862    0.8136712
H    -5.0263804   -1.0082727    1.0024760
C    -3.9381552    0.6617804    0.2400876
H    -4.8252424    1.2338890   -0.0111295
C    -2.6768410    1.2433246    0.0057578
C    -1.4974121    0.5051527    0.2848253
C    -1.6508332   -0.7338728    0.9404026
H    -0.7713646   -1.2730967    1.2633753
C    -2.8898548   -1.2624035    1.1994307
H    -2.9683706   -2.2124563    1.7152676
C    -2.5773185    2.5963696   -0.4192930
H    -3.4870728    3.1412239   -0.6474055
C    -1.3741895    3.2147896   -0.4364030
H    -1.2997315    4.2742019   -0.6578144
C    -0.1719488    2.4994090   -0.1734588
C    -0.2043917    1.1018437    0.0192689
C     1.0513491    3.2042560   -0.0676222
H     1.0427344    4.2819499   -0.1896997
C     2.1942091    2.5487446    0.2579577
H     3.1168527    3.0912848    0.4334727
C     2.2216473    1.1336562    0.2934990
C     1.0486931    0.3945528    0.0302412
C     3.4483363    0.4614633    0.5573939
H     4.3095794    1.0606054    0.8334846
C     3.5427346   -0.8855926    0.4749463
H     4.4731467   -1.3939704    0.7038822
C     2.4490052   -1.6474447   -0.0196319
C     1.2150704   -1.0057258   -0.3013573
C     0.2531113   -1.7434440   -1.0216591
H    -0.6541356   -1.2535051   -1.3462847
C     0.4494193   -3.0628597   -1.3413779
H    -0.3083162   -3.5944309   -1.9054060
C     1.6251726   -3.7207967   -0.9552541
H     1.7670048   -4.7687404   -1.1927019
C     2.6109872   -3.0144177   -0.3183050
H     3.5525612   -3.4902813   -0.0646367
Bq         0.7080563059    -4.6892826401    -1.2380839003
Bq         0.5884710146    -4.7691295935    -0.9747897262
Bq         0.7479180697    -4.6626669890    -1.3258486251
Bq         0.5486092508    -4.7957452446    -0.8870250015
Bq         0.7877798335    -4.6360513379    -1.4136133498
Bq         0.5087474870    -4.8223608957    -0.7992602768
Bq         0.8276415973    -4.6094356868    -1.5013780745
Bq         0.4688857232    -4.8489765468    -0.7114955521
Bq         0.8675033611    -4.5828200357    -1.5891427992
Bq         0.6681945421    -4.7158982912    -1.1503191756
Bq         0.6173263050    -4.6461209596    -1.0383212005
Bq         0.6970498325    -4.5928896574    -1.2138506499
Bq         0.5774645412    -4.6727366108    -0.9505564757
Bq         0.7369115963    -4.5662740063    -1.3016153746
Bq         0.5376027774    -4.6993522619    -0.8627917510
Bq         0.7767733601    -4.5396583552    -1.3893800993
Bq         0.4977410136    -4.7259679130    -0.7750270263
Bq         0.8166351239    -4.5130427041    -1.4771448240
Bq         0.4578792498    -4.7525835641    -0.6872623016
Bq         0.8564968877    -4.4864270530    -1.5649095487
Bq         0.6571880688    -4.6195053085    -1.1260859252
Bq         0.6063198316    -4.5497279769    -1.0140879500
Bq         0.6860433592    -4.4964966747    -1.1896173994
Bq         0.5664580678    -4.5763436280    -0.9263232253
Bq         0.7259051230    -4.4698810236    -1.2773821241
Bq         0.5265963040    -4.6029592791    -0.8385585006
Bq         0.7657668868    -4.4432653725    -1.3651468488
Bq         0.4867345402    -4.6295749303    -0.7507937759
Bq         0.8056286505    -4.4166497214    -1.4529115736
Bq         0.4468727765    -4.6561905814    -0.6630290511
Bq         0.8454904143    -4.3900340703    -1.5406762983
Bq         0.6461815954    -4.5231123258    -1.1018526747
Bq         0.5953133582    -4.4533349942    -0.9898546995
Bq         0.6750368858    -4.4001036920    -1.1653841490
Bq         0.5554515944    -4.4799506453    -0.9020899748
Bq         0.7148986496    -4.3734880409    -1.2531488737
Bq         0.5155898307    -4.5065662964    -0.8143252501
Bq         0.7547604134    -4.3468723898    -1.3409135984
Bq         0.4757280669    -4.5331819475    -0.7265605254
Bq         0.7946221772    -4.3202567387    -1.4286783231
Bq         0.4358663031    -4.5597975986    -0.6387958007
Bq         0.8344839410    -4.2936410876    -1.5164430478
Bq         0.6351751220    -4.4267193431    -1.0776194243
Bq         0.5843068849    -4.3569420115    -0.9656214491
Bq         0.6640304124    -4.3037107093    -1.1411508985
Bq         0.5444451211    -4.3835576626    -0.8778567244
Bq         0.7038921762    -4.2770950582    -1.2289156232
Bq         0.5045833573    -4.4101733137    -0.7900919997
Bq         0.7437539400    -4.2504794071    -1.3166803479
Bq         0.4647215935    -4.4367889648    -0.7023272749
Bq         0.7836157038    -4.2238637560    -1.4044450726
Bq         0.4248598297    -4.4634046159    -0.6145625502
Bq         0.8234774676    -4.1972481049    -1.4922097974
Bq         0.6241686486    -4.3303263604    -1.0533861738
Bq         0.5733004115    -4.2605490288    -0.9413881986
Bq         0.6530239391    -4.2073177266    -1.1169176480
Bq         0.5334386477    -4.2871646799    -0.8536234739
Bq         0.6928857028    -4.1807020755    -1.2046823728
Bq         0.4935768839    -4.3137803310    -0.7658587492
Bq         0.7327474666    -4.1540864244    -1.2924470975
Bq         0.4537151201    -4.3403959821    -0.6780940245
Bq         0.7726092304    -4.1274707733    -1.3802118222
Bq         0.4138533563    -4.3670116332    -0.5903292998
Bq         0.8124709942    -4.1008551222    -1.4679765469
Bq         0.6131621753    -4.2339333777    -1.0291529233
Bq         0.5622939381    -4.1641560461    -0.9171549482
Bq         0.6420174657    -4.1109247439    -1.0926843976
Bq         0.5224321743    -4.1907716972    -0.8293902235
Bq         0.6818792295    -4.0843090928    -1.1804491223
Bq         0.4825704105    -4.2173873483    -0.7416254987
Bq         0.7217409933    -4.0576934417    -1.2682138470
Bq         0.4427086468    -4.2440029994    -0.6538607740
Bq         0.7616027570    -4.0310777905    -1.3559785717
Bq         0.4028468830    -4.2706186505    -0.5660960493
Bq         0.8014645208    -4.0044621394    -1.4437432964
Bq         0.6021557019    -4.1375403950    -1.0049196729
Bq         0.5512874647    -4.0677630634    -0.8929216977
Bq         0.6310109923    -4.0145317612    -1.0684511471
Bq         0.5114257010    -4.0943787145    -0.8051569730
Bq         0.6708727561    -3.9879161100    -1.1562158718
Bq         0.4715639372    -4.1209943656    -0.7173922483
Bq         0.7107345199    -3.9613004589    -1.2439805966
Bq         0.4317021734    -4.1476100167    -0.6296275236
Bq         0.7505962837    -3.9346848078    -1.3317453213
Bq         0.3918404096    -4.1742256678    -0.5418627989
Bq         0.7904580475    -3.9080691567    -1.4195100460
Bq         0.5911492285    -4.0411474123    -0.9806864224
Bq         0.5402809914    -3.9713700807    -0.8686884472
Bq         0.6200045189    -3.9181387784    -1.0442178967
Bq         0.5004192276    -3.9979857318    -0.7809237225
Bq         0.6598662827    -3.8915231273    -1.1319826214
Bq         0.4605574638    -4.0246013829    -0.6931589978
Bq         0.6997280465    -3.8649074762    -1.2197473461
Bq         0.4206957000    -4.0512170340    -0.6053942731
Bq         0.7395898103    -3.8382918251    -1.3075120708
Bq         0.3808339362    -4.0778326851    -0.5176295484
Bq         0.7794515741    -3.8116761740    -1.3952767955
Bq         0.5801427552    -3.9447544296    -0.9564531720
Bq         0.5292745180    -3.8749770979    -0.8444551968
Bq         0.6089980456    -3.8217457957    -1.0199846462
Bq         0.4894127542    -3.9015927491    -0.7566904721
Bq         0.6488598094    -3.7951301446    -1.1077493709
Bq         0.4495509904    -3.9282084002    -0.6689257474
Bq         0.6887215731    -3.7685144935    -1.1955140956
Bq         0.4096892266    -3.9548240513    -0.5811610227
Bq         0.7285833369    -3.7418988424    -1.2832788204
Bq         0.3698274628    -3.9814397024    -0.4933962979
Bq         0.7684451007    -3.7152831913    -1.3710435451
Bq         0.5691362818    -3.8483614468    -0.9322199215
Bq         0.5182680446    -3.7785841152    -0.8202219463
Bq         0.5979915722    -3.7253528130    -0.9957513958
Bq         0.4784062808    -3.8051997663    -0.7324572216
Bq         0.6378533360    -3.6987371619    -1.0835161205
Bq         0.4385445170    -3.8318154174    -0.6446924969
Bq         0.6777150998    -3.6721215108    -1.1712808452
Bq         0.3986827533    -3.8584310686    -0.5569277722
Bq         0.7175768636    -3.6455058597    -1.2590455699
Bq         0.3588209895    -3.8850467197    -0.4691630475
Bq         0.7574386273    -3.6188902086    -1.3468102946
Bq         0.5581298084    -3.7519684641    -0.9079866710
Bq         0.5072615713    -3.6821911325    -0.7959886959
Bq         0.5869850988    -3.6289598303    -0.9715181453
Bq         0.4673998075    -3.7088067836    -0.7082239712
Bq         0.6268468626    -3.6023441792    -1.0592828700
Bq         0.4275380437    -3.7354224347    -0.6204592464
Bq         0.6667086264    -3.5757285281    -1.1470475947
Bq         0.3876762799    -3.7620380858    -0.5326945217
Bq         0.7065703902    -3.5491128770    -1.2348123194
Bq         0.3478145161    -3.7886537369    -0.4449297970
Bq         0.7464321540    -3.5224972259    -1.3225770442
Bq         0.5471233350    -3.6555754814    -0.8837534206
Bq         0.4962550979    -3.5857981498    -0.7717554454
Bq         0.5759786255    -3.5325668476    -0.9472848948
Bq         0.4563933341    -3.6124138009    -0.6839907207
Bq         0.6158403892    -3.5059511965    -1.0350496196
Bq         0.4165315703    -3.6390294520    -0.5962259960
Bq         0.6557021530    -3.4793355454    -1.1228143443
Bq         0.3766698065    -3.6656451031    -0.5084612713
Bq         0.6955639168    -3.4527198943    -1.2105790690
Bq         0.3368080427    -3.6922607542    -0.4206965466
Bq         0.7354256806    -3.4261042432    -1.2983437937
Bq         0.5361168617    -3.5591824987    -0.8595201701
Bq         0.4852486245    -3.4894051671    -0.7475221950
Bq         0.5649721521    -3.4361738649    -0.9230516444
Bq         0.4453868607    -3.5160208182    -0.6597574702
Bq         0.6048339159    -3.4095582138    -1.0108163691
Bq         0.4055250969    -3.5426364693    -0.5719927455
Bq         0.6446956797    -3.3829425627    -1.0985810938
Bq         0.3656633331    -3.5692521204    -0.4842280208
Bq         0.6845574434    -3.3563269116    -1.1863458185
Bq         0.3258015694    -3.5958677715    -0.3964632961
Bq         0.7244192072    -3.3297112605    -1.2741105432
Bq         0.5251103883    -3.4627895160    -0.8352869197
Bq         0.4742421511    -3.3930121844    -0.7232889445
Bq         0.5539656787    -3.3397808822    -0.8988183939
Bq         0.4343803873    -3.4196278355    -0.6355242198
Bq         0.5938274425    -3.3131652311    -0.9865831186
Bq         0.3945186236    -3.4462434866    -0.5477594951
Bq         0.6336892063    -3.2865495800    -1.0743478434
Bq         0.3546568598    -3.4728591377    -0.4599947704
Bq         0.6735509701    -3.2599339288    -1.1621125681
Bq         0.3147950960    -3.4994747888    -0.3722300457
Bq         0.7134127339    -3.2333182777    -1.2498772928
Bq         0.5141039149    -3.3663965333    -0.8110536692
Bq         0.4632356778    -3.2966192017    -0.6990556940
Bq         0.5429592053    -3.2433878995    -0.8745851435
Bq         0.4233739140    -3.3232348528    -0.6112909693
Bq         0.5828209691    -3.2167722484    -0.9623498682
Bq         0.3835121502    -3.3498505039    -0.5235262446
Bq         0.6226827329    -3.1901565972    -1.0501145929
Bq         0.3436503864    -3.3764661550    -0.4357615199
Bq         0.6625444967    -3.1635409461    -1.1378793176
Bq         0.3037886226    -3.4030818061    -0.3479967952
Bq         0.7024062605    -3.1369252950    -1.2256440423
Bq         0.5030974416    -3.2700035506    -0.7868204188
Bq         0.4522292044    -3.2002262190    -0.6748224436
Bq         0.5319527320    -3.1469949167    -0.8503518930
Bq         0.4123674406    -3.2268418701    -0.5870577189
Bq         0.5718144958    -3.1203792656    -0.9381166177
Bq         0.3725056768    -3.2534575212    -0.4992929942
Bq         0.6116762595    -3.0937636145    -1.0258813424
Bq         0.3326439130    -3.2800731723    -0.4115282694
Bq         0.6515380233    -3.0671479634    -1.1136460671
Bq         0.2927821492    -3.3066888234    -0.3237635447
Bq         0.6913997871    -3.0405323123    -1.2014107919
Bq         0.4920909682    -3.1736105679    -0.7625871683
Bq         0.4412227310    -3.1038332362    -0.6505891931
Bq         0.5209462586    -3.0506019340    -0.8261186426
Bq         0.4013609672    -3.1304488874    -0.5628244684
Bq         0.5608080224    -3.0239862829    -0.9138833673
Bq         0.3614992034    -3.1570645385    -0.4750597437
Bq         0.6006697862    -2.9973706318    -1.0016480920
Bq         0.3216374397    -3.1836801896    -0.3872950190
Bq         0.6405315500    -2.9707549807    -1.0894128167
Bq         0.2817756759    -3.2102958407    -0.2995302943
Bq         0.6803933137    -2.9441393296    -1.1771775414
Bq         0.4810844948    -3.0772175851    -0.7383539178
Bq         0.4302162576    -3.0074402535    -0.6263559427
Bq         0.5099397852    -2.9542089513    -0.8018853921
Bq         0.3903544939    -3.0340559046    -0.5385912180

1
2
3
4
5
6
7
8
9
10
11
12
13
14
15
16
17
18
19
20
21
22
23
24
25
26
27
28
29
30
31
32
33
34
35
36
37
38
39
40
41
42
43
44
45
46
47
48
49
50
51
52
53
54
55
56
57
58
59
60
61
62
63
64
65
66
67
68
69
70
71
72
73
74
75
76
77
78
79
80
81
82
83
84
85
86
87
88
89
90
91
92
93
94
95
96
97
98
99
100
101
102
103
104
105
106
107
108
109
110
111
112
113
114
115
116
117
118
119
120
121
122
123
124
125
126
127
128
129
130
131
132
133
134
135
136
137
138
139
140
141
142
143
144
145
146
147
148
149
150
151
152
153
154
155
156
157
158
159
160
161
162
163
164
165
166
167
168
169
170
171
172
173
174
175
176
177
178
179
180
181
182
183
184
185
186
187
188
189
190
191
192
193
194
195
196
197
198
199
200
201
202
203
204
205
206
207
208
209
210
211
212
213
214
215
216
217
218
219
220
221
222
223
224
225
226
227
228
229
230
231
232
233
234
235
236

