%nproc=8
%mem=1000MB
# rb3lyp/6-311+g** NMR geom=connectivity

Title

0 1
C    -4.0500558   -0.5771862    0.8136712
H    -5.0263804   -1.0082727    1.0024760
C    -3.9381552    0.6617804    0.2400876
H    -4.8252424    1.2338890   -0.0111295
C    -2.6768410    1.2433246    0.0057578
C    -1.4974121    0.5051527    0.2848253
C    -1.6508332   -0.7338728    0.9404026
H    -0.7713646   -1.2730967    1.2633753
C    -2.8898548   -1.2624035    1.1994307
H    -2.9683706   -2.2124563    1.7152676
C    -2.5773185    2.5963696   -0.4192930
H    -3.4870728    3.1412239   -0.6474055
C    -1.3741895    3.2147896   -0.4364030
H    -1.2997315    4.2742019   -0.6578144
C    -0.1719488    2.4994090   -0.1734588
C    -0.2043917    1.1018437    0.0192689
C     1.0513491    3.2042560   -0.0676222
H     1.0427344    4.2819499   -0.1896997
C     2.1942091    2.5487446    0.2579577
H     3.1168527    3.0912848    0.4334727
C     2.2216473    1.1336562    0.2934990
C     1.0486931    0.3945528    0.0302412
C     3.4483363    0.4614633    0.5573939
H     4.3095794    1.0606054    0.8334846
C     3.5427346   -0.8855926    0.4749463
H     4.4731467   -1.3939704    0.7038822
C     2.4490052   -1.6474447   -0.0196319
C     1.2150704   -1.0057258   -0.3013573
C     0.2531113   -1.7434440   -1.0216591
H    -0.6541356   -1.2535051   -1.3462847
C     0.4494193   -3.0628597   -1.3413779
H    -0.3083162   -3.5944309   -1.9054060
C     1.6251726   -3.7207967   -0.9552541
H     1.7670048   -4.7687404   -1.1927019
C     2.6109872   -3.0144177   -0.3183050
H     3.5525612   -3.4902813   -0.0646367
Bq        -0.5859753932    -0.2134755027     1.1234764651
Bq        -0.5870373799    -0.0830273517     1.3936285557
Bq        -0.5856213976    -0.2569582197     1.0334257682
Bq        -0.5873913755    -0.0395446346     1.4836792526
Bq        -0.5852674020    -0.3004409367     0.9433750713
Bq        -0.5877453710     0.0039380824     1.5737299495
Bq        -0.5849134065    -0.3439236537     0.8533243744
Bq        -0.5880993666     0.0474207994     1.6637806464
Bq        -0.5845594109    -0.3874063707     0.7632736775
Bq        -0.5863293887    -0.1699927857     1.2135271619
Bq        -0.5865124520    -0.0364586760     1.2600954778
Bq        -0.5858044609    -0.1234241100     1.0799940840
Bq        -0.5868664476     0.0070240410     1.3501461747
Bq        -0.5854504653    -0.1669068270     0.9899433871
Bq        -0.5872204432     0.0505067580     1.4401968716
Bq        -0.5850964698    -0.2103895440     0.8998926903
Bq        -0.5875744388     0.0939894750     1.5302475684
Bq        -0.5847424742    -0.2538722610     0.8098419934
Bq        -0.5879284343     0.1374721920     1.6202982653
Bq        -0.5843884786    -0.2973549780     0.7197912965
Bq        -0.5861584565    -0.0799413930     1.1700447809
Bq        -0.5863415198     0.0535927167     1.2166130968
Bq        -0.5856335286    -0.0333727173     1.0365117030
Bq        -0.5866955153     0.0970754337     1.3066637936
Bq        -0.5852795331    -0.0768554343     0.9464610061
Bq        -0.5870495109     0.1405581507     1.3967144905
Bq        -0.5849255375    -0.1203381513     0.8564103092
Bq        -0.5874035065     0.1840408677     1.4867651874
Bq        -0.5845715419    -0.1638208683     0.7663596123
Bq        -0.5877575021     0.2275235847     1.5768158843
Bq        -0.5842175463    -0.2073035853     0.6763089155
Bq        -0.5859875242     0.0101099997     1.1265623999
Bq        -0.5861705875     0.1436441094     1.1731307157
Bq        -0.5854625964     0.0566786753     0.9930293220
Bq        -0.5865245831     0.1871268264     1.2631814126
Bq        -0.5851086008     0.0131959583     0.9029786251
Bq        -0.5868785786     0.2306095434     1.3532321095
Bq        -0.5847546052    -0.0302867587     0.8129279282
Bq        -0.5872325742     0.2740922604     1.4432828064
Bq        -0.5844006096    -0.0737694757     0.7228772313
Bq        -0.5875865698     0.3175749774     1.5333335033
Bq        -0.5840466141    -0.1172521927     0.6328265344
Bq        -0.5858165919     0.1001613924     1.0830800188
Bq        -0.5859996552     0.2336955020     1.1296483347
Bq        -0.5852916641     0.1467300680     0.9495469409
Bq        -0.5863536508     0.2771782190     1.2196990316
Bq        -0.5849376685     0.1032473510     0.8594962440
Bq        -0.5867076464     0.3206609360     1.3097497285
Bq        -0.5845836729     0.0597646340     0.7694455472
Bq        -0.5870616419     0.3641436530     1.3998004253
Bq        -0.5842296774     0.0162819170     0.6793948503
Bq        -0.5874156375     0.4076263700     1.4898511222
Bq        -0.5838756818    -0.0272008000     0.5893441534
Bq        -0.5856456597     0.1902127850     1.0395976378
Bq        -0.5858287229     0.3237468947     1.0861659537
Bq        -0.5851207318     0.2367814607     0.9060645599
Bq        -0.5861827185     0.3672296117     1.1762166505
Bq        -0.5847667362     0.1932987437     0.8160138630
Bq        -0.5865367141     0.4107123287     1.2662673474
Bq        -0.5844127407     0.1498160267     0.7259631661
Bq        -0.5868907097     0.4541950457     1.3563180443
Bq        -0.5840587451     0.1063333097     0.6359124692
Bq        -0.5872447052     0.4976777627     1.4463687412
Bq        -0.5837047495     0.0628505927     0.5458617724
Bq        -0.5854747274     0.2802641777     0.9961152568
Bq        -0.5856577907     0.4137982874     1.0426835726
Bq        -0.5849497995     0.3268328534     0.8625821789
Bq        -0.5860117862     0.4572810044     1.1327342695
Bq        -0.5845958040     0.2833501364     0.7725314820
Bq        -0.5863657818     0.5007637214     1.2227849664
Bq        -0.5842418084     0.2398674194     0.6824807851
Bq        -0.5867197774     0.5442464384     1.3128356633
Bq        -0.5838878128     0.1963847023     0.5924300882
Bq        -0.5870737730     0.5877291554     1.4028863602
Bq        -0.5835338172     0.1529019853     0.5023793913
Bq        -0.5853037951     0.3703155704     0.9526328757
Bq        -0.5854868584     0.5038496800     0.9992011916
Bq        -0.5847788673     0.4168842460     0.8190997978
Bq        -0.5858408540     0.5473323970     1.0892518885
Bq        -0.5844248717     0.3734015290     0.7290491009
Bq        -0.5861948495     0.5908151140     1.1793025854
Bq        -0.5840708761     0.3299188120     0.6389984041
Bq        -0.5865488451     0.6342978311     1.2693532822
Bq        -0.5837168805     0.2864360950     0.5489477072
Bq        -0.5869028407     0.6777805481     1.3594039791
Bq        -0.5833628850     0.2429533780     0.4588970103
Bq        -0.5851328628     0.4603669630     0.9091504947
Bq        -0.5853159261     0.5939010727     0.9557188106
Bq        -0.5846079350     0.5069356387     0.7756174168
Bq        -0.5856699217     0.6373837897     1.0457695074
Bq        -0.5842539394     0.4634529217     0.6855667199
Bq        -0.5860239173     0.6808665067     1.1358202043
Bq        -0.5838999438     0.4199702047     0.5955160230
Bq        -0.5863779128     0.7243492237     1.2258709012
Bq        -0.5835459483     0.3764874877     0.5054653261
Bq        -0.5867319084     0.7678319407     1.3159215981
Bq        -0.5831919527     0.3330047707     0.4154146293
Bq        -0.5849619306     0.5504183557     0.8656681137
Bq        -0.5851449939     0.6839524654     0.9122364295
Bq        -0.5844370027     0.5969870314     0.7321350358
Bq        -0.5854989894     0.7274351824     1.0022871264
Bq        -0.5840830071     0.5535043144     0.6420843389
Bq        -0.5858529850     0.7709178994     1.0923378233
Bq        -0.5837290116     0.5100215974     0.5520336420
Bq        -0.5862069806     0.8144006164     1.1823885202
Bq        -0.5833750160     0.4665388804     0.4619829451
Bq        -0.5865609761     0.8578833334     1.2724392171
Bq        -0.5830210204     0.4230561634     0.3719322482
Bq        -0.5847909983     0.6404697484     0.8221857326
Bq        -0.5849740616     0.7740038581     0.8687540485
Bq        -0.5842660704     0.6870384240     0.6886526547
Bq        -0.5853280572     0.8174865751     0.9588047454
Bq        -0.5839120749     0.6435557070     0.5986019578
Bq        -0.5856820527     0.8609692921     1.0488554423
Bq        -0.5835580793     0.6000729900     0.5085512610
Bq        -0.5860360483     0.9044520091     1.1389061391
Bq        -0.5832040837     0.5565902730     0.4185005641
Bq        -0.5863900439     0.9479347261     1.2289568360
Bq        -0.5828500881     0.5131075560     0.3284498672
Bq        -0.5846200660     0.7305211410     0.7787033516
Bq        -0.5848031293     0.8640552507     0.8252716675
Bq        -0.5840951382     0.7770898167     0.6451702737
Bq        -0.5851571249     0.9075379677     0.9153223643
Bq        -0.5837411426     0.7336070997     0.5551195768
Bq        -0.5855111205     0.9510206847     1.0053730612
Bq        -0.5833871470     0.6901243827     0.4650688799
Bq        -0.5858651160     0.9945034017     1.0954237581
Bq        -0.5830331514     0.6466416657     0.3750181831
Bq        -0.5862191116     1.0379861187     1.1854744550
Bq        -0.5826791559     0.6031589487     0.2849674862
Bq        -0.5844491337     0.8205725337     0.7352209706
Bq        -0.5846321970     0.9541066434     0.7817892864
Bq        -0.5839242059     0.8671412094     0.6016878927
Bq        -0.5849861926     0.9975893604     0.8718399833
Bq        -0.5835702103     0.8236584924     0.5116371958
Bq        -0.5853401882     1.0410720774     0.9618906802
Bq        -0.5832162147     0.7801757754     0.4215864989
Bq        -0.5856941838     1.0845547944     1.0519413771
Bq        -0.5828622192     0.7366930584     0.3315358020
Bq        -0.5860481793     1.1280375114     1.1419920740
Bq        -0.5825082236     0.6932103414     0.2414851051
Bq        -0.5842782015     0.9106239264     0.6917385895
Bq        -0.5844612648     1.0441580361     0.7383069054
Bq        -0.5837532736     0.9571926021     0.5582055116
Bq        -0.5848152603     1.0876407531     0.8283576023
Bq        -0.5833992780     0.9137098850     0.4681548148
Bq        -0.5851692559     1.1311234701     0.9184082992
Bq        -0.5830452825     0.8702271680     0.3781041179
Bq        -0.5855232515     1.1746061871     1.0084589960
Bq        -0.5826912869     0.8267444510     0.2880534210
Bq        -0.5858772471     1.2180889041     1.0985096929
Bq        -0.5823372913     0.7832617340     0.1980027241
Bq        -0.5841072692     1.0006753191     0.6482562085
Bq        -0.5842903325     1.1342094287     0.6948245244
Bq        -0.5835823413     1.0472439947     0.5147231306
Bq        -0.5846443281     1.1776921457     0.7848752212
Bq        -0.5832283458     1.0037612777     0.4246724337
Bq        -0.5849983236     1.2211748627     0.8749259181
Bq        -0.5828743502     0.9602785607     0.3346217368
Bq        -0.5853523192     1.2646575797     0.9649766150
Bq        -0.5825203546     0.9167958437     0.2445710400
Bq        -0.5857063148     1.3081402968     1.0550273119
Bq        -0.5821663590     0.8733131267     0.1545203431
Bq        -0.5839363369     1.0907267117     0.6047738275
Bq        -0.5841194002     1.2242608214     0.6513421433
Bq        -0.5834114091     1.1372953874     0.4712407496
Bq        -0.5844733958     1.2677435384     0.7413928402
Bq        -0.5830574135     1.0938126704     0.3811900527
Bq        -0.5848273914     1.3112262554     0.8314435371
Bq        -0.5827034179     1.0503299534     0.2911393558
Bq        -0.5851813869     1.3547089724     0.9214942340
Bq        -0.5823494223     1.0068472364     0.2010886589
Bq        -0.5855353825     1.3981916894     1.0115449309
Bq        -0.5819954268     0.9633645194     0.1110379620
Bq        -0.5837654046     1.1807781044     0.5612914465
Bq        -0.5839484679     1.3143122141     0.6078597623
Bq        -0.5832404768     1.2273467801     0.4277583685
Bq        -0.5843024635     1.3577949311     0.6979104592
Bq        -0.5828864812     1.1838640631     0.3377076717
Bq        -0.5846564591     1.4012776481     0.7879611561
Bq        -0.5825324856     1.1403813461     0.2476569748
Bq        -0.5850104547     1.4447603651     0.8780118529
Bq        -0.5821784901     1.0968986291     0.1576062779
Bq        -0.5853644502     1.4882430821     0.9680625498
Bq        -0.5818244945     1.0534159120     0.0675555810
Bq        -0.5835944724     1.2708294971     0.5178090654
Bq        -0.5837775357     1.4043636067     0.5643773813
Bq        -0.5830695445     1.3173981727     0.3842759875
Bq        -0.5841315312     1.4478463237     0.6544280782
Bq        -0.5827155489     1.2739154557     0.2942252906
Bq        -0.5844855268     1.4913290408     0.7444787750
Bq        -0.5823615534     1.2304327387     0.2041745937
Bq        -0.5848395224     1.5348117578     0.8345294719
Bq        -0.5820075578     1.1869500217     0.1141238969
Bq        -0.5851935180     1.5782944748     0.9245801688
Bq        -0.5816535622     1.1434673047     0.0240732000
Bq        -0.5834235401     1.3608808897     0.4743266844
Bq        -0.5836066034     1.4944149994     0.5208950002
Bq        -0.5828986122     1.4074495654     0.3407936065
Bq        -0.5839605990     1.5378977164     0.6109456971

1
2
3
4
5
6
7
8
9
10
11
12
13
14
15
16
17
18
19
20
21
22
23
24
25
26
27
28
29
30
31
32
33
34
35
36
37
38
39
40
41
42
43
44
45
46
47
48
49
50
51
52
53
54
55
56
57
58
59
60
61
62
63
64
65
66
67
68
69
70
71
72
73
74
75
76
77
78
79
80
81
82
83
84
85
86
87
88
89
90
91
92
93
94
95
96
97
98
99
100
101
102
103
104
105
106
107
108
109
110
111
112
113
114
115
116
117
118
119
120
121
122
123
124
125
126
127
128
129
130
131
132
133
134
135
136
137
138
139
140
141
142
143
144
145
146
147
148
149
150
151
152
153
154
155
156
157
158
159
160
161
162
163
164
165
166
167
168
169
170
171
172
173
174
175
176
177
178
179
180
181
182
183
184
185
186
187
188
189
190
191
192
193
194
195
196
197
198
199
200
201
202
203
204
205
206
207
208
209
210
211
212
213
214
215
216
217
218
219
220
221
222
223
224
225
226
227
228
229
230
231
232
233
234
235
236

