%nproc=8
%mem=1000MB
# rb3lyp/6-311+g** NMR geom=connectivity

Title

0 1
C    -4.0500558   -0.5771862    0.8136712
H    -5.0263804   -1.0082727    1.0024760
C    -3.9381552    0.6617804    0.2400876
H    -4.8252424    1.2338890   -0.0111295
C    -2.6768410    1.2433246    0.0057578
C    -1.4974121    0.5051527    0.2848253
C    -1.6508332   -0.7338728    0.9404026
H    -0.7713646   -1.2730967    1.2633753
C    -2.8898548   -1.2624035    1.1994307
H    -2.9683706   -2.2124563    1.7152676
C    -2.5773185    2.5963696   -0.4192930
H    -3.4870728    3.1412239   -0.6474055
C    -1.3741895    3.2147896   -0.4364030
H    -1.2997315    4.2742019   -0.6578144
C    -0.1719488    2.4994090   -0.1734588
C    -0.2043917    1.1018437    0.0192689
C     1.0513491    3.2042560   -0.0676222
H     1.0427344    4.2819499   -0.1896997
C     2.1942091    2.5487446    0.2579577
H     3.1168527    3.0912848    0.4334727
C     2.2216473    1.1336562    0.2934990
C     1.0486931    0.3945528    0.0302412
C     3.4483363    0.4614633    0.5573939
H     4.3095794    1.0606054    0.8334846
C     3.5427346   -0.8855926    0.4749463
H     4.4731467   -1.3939704    0.7038822
C     2.4490052   -1.6474447   -0.0196319
C     1.2150704   -1.0057258   -0.3013573
C     0.2531113   -1.7434440   -1.0216591
H    -0.6541356   -1.2535051   -1.3462847
C     0.4494193   -3.0628597   -1.3413779
H    -0.3083162   -3.5944309   -1.9054060
C     1.6251726   -3.7207967   -0.9552541
H     1.7670048   -4.7687404   -1.1927019
C     2.6109872   -3.0144177   -0.3183050
H     3.5525612   -3.4902813   -0.0646367
Bq         0.0120264560    -2.1252362468    -0.0979358486
Bq         0.0633841846    -2.0967809288    -0.2891233968
Bq        -0.0136524084    -2.1394639058    -0.0023420745
Bq         0.0890630489    -2.0825532697    -0.3847171709
Bq        -0.0393312727    -2.1536915649     0.0932516996
Bq         0.1147419133    -2.0683256107    -0.4803109450
Bq        -0.0650101370    -2.1679192239     0.1888454736
Bq         0.1404207776    -2.0540979517    -0.5759047191
Bq        -0.0906890013    -2.1821468829     0.2844392477
Bq         0.1660996419    -2.0398702926    -0.6714984932
Bq         0.0377053203    -2.1110085878    -0.1935296227
Bq         0.0083354054    -2.0262535528    -0.0841953091
Bq         0.0596931341    -1.9977982347    -0.2753828573
Bq        -0.0173434589    -2.0404812118     0.0113984650
Bq         0.0853719984    -1.9835705757    -0.3709766314
Bq        -0.0430223232    -2.0547088708     0.1069922391
Bq         0.1110508627    -1.9693429167    -0.4665704055
Bq        -0.0687011875    -2.0689365299     0.2025860132
Bq         0.1367297270    -1.9551152576    -0.5621641796
Bq        -0.0943800519    -2.0831641889     0.2981797873
Bq         0.1624085914    -1.9408875986    -0.6577579536
Bq         0.0340142698    -2.0120258937    -0.1797890832
Bq         0.0046443549    -1.9272708587    -0.0704547695
Bq         0.0560020835    -1.8988155407    -0.2616423177
Bq        -0.0210345094    -1.9414985178     0.0251390046
Bq         0.0816809479    -1.8845878817    -0.3572360918
Bq        -0.0467133738    -1.9557261768     0.1207327787
Bq         0.1073598122    -1.8703602226    -0.4528298659
Bq        -0.0723922381    -1.9699538358     0.2163265528
Bq         0.1330386765    -1.8561325636    -0.5484236400
Bq        -0.0980711024    -1.9841814949     0.3119203269
Bq         0.1587175408    -1.8419049046    -0.6440174141
Bq         0.0303232192    -1.9130431997    -0.1660485436
Bq         0.0009533044    -1.8282881647    -0.0567142300
Bq         0.0523110330    -1.7998328466    -0.2479017782
Bq        -0.0247255600    -1.8425158237     0.0388795441
Bq         0.0779898973    -1.7856051876    -0.3434955522
Bq        -0.0504044243    -1.8567434828     0.1344733182
Bq         0.1036687616    -1.7713775286    -0.4390893263
Bq        -0.0760832886    -1.8709711418     0.2300670923
Bq         0.1293476260    -1.7571498696    -0.5346831004
Bq        -0.1017621529    -1.8851988008     0.3256608664
Bq         0.1550264903    -1.7429222105    -0.6302768745
Bq         0.0266321687    -1.8140605057    -0.1523080041
Bq        -0.0027377462    -1.7293054707    -0.0429736904
Bq         0.0486199825    -1.7008501526    -0.2341612386
Bq        -0.0284166105    -1.7435331297     0.0526200837
Bq         0.0742988468    -1.6866224936    -0.3297550127
Bq        -0.0540954748    -1.7577607887     0.1482138578
Bq         0.0999777111    -1.6723948346    -0.4253487868
Bq        -0.0797743391    -1.7719884478     0.2438076319
Bq         0.1256565754    -1.6581671755    -0.5209425609
Bq        -0.1054532035    -1.7862161068     0.3394014060
Bq         0.1513354398    -1.6439395165    -0.6165363350
Bq         0.0229411181    -1.7150778116    -0.1385674645
Bq        -0.0064287967    -1.6303227766    -0.0292331508
Bq         0.0449289319    -1.6018674586    -0.2204206990
Bq        -0.0321076610    -1.6445504357     0.0663606233
Bq         0.0706077963    -1.5876397995    -0.3160144731
Bq        -0.0577865254    -1.6587780947     0.1619543973
Bq         0.0962866606    -1.5734121405    -0.4116082472
Bq        -0.0834653897    -1.6730057537     0.2575481714
Bq         0.1219655249    -1.5591844815    -0.5072020213
Bq        -0.1091442540    -1.6872334127     0.3531419455
Bq         0.1476443892    -1.5449568225    -0.6027957954
Bq         0.0192500676    -1.6160951176    -0.1248269249
Bq        -0.0101198472    -1.5313400826    -0.0154926113
Bq         0.0412378814    -1.5028847645    -0.2066801595
Bq        -0.0357987116    -1.5455677416     0.0801011628
Bq         0.0669167457    -1.4886571055    -0.3022739336
Bq        -0.0614775759    -1.5597954007     0.1756949369
Bq         0.0925956100    -1.4744294465    -0.3978677077
Bq        -0.0871564402    -1.5740230597     0.2712887110
Bq         0.1182744744    -1.4602017875    -0.4934614818
Bq        -0.1128353045    -1.5882507187     0.3668824851
Bq         0.1439533387    -1.4459741284    -0.5890552559
Bq         0.0155590171    -1.5171124236    -0.1110863854
Bq        -0.0138108978    -1.4323573886    -0.0017520717
Bq         0.0375468309    -1.4039020705    -0.1929396199
Bq        -0.0394897621    -1.4465850476     0.0938417024
Bq         0.0632256952    -1.3896744115    -0.2885333940
Bq        -0.0651686264    -1.4608127066     0.1894354765
Bq         0.0889045595    -1.3754467524    -0.3841271681
Bq        -0.0908474908    -1.4750403656     0.2850292506
Bq         0.1145834238    -1.3612190934    -0.4797209422
Bq        -0.1165263551    -1.4892680247     0.3806230247
Bq         0.1402622882    -1.3469914344    -0.5753147163
Bq         0.0118679665    -1.4181297295    -0.0973458458
Bq        -0.0175019483    -1.3333746945     0.0119884678
Bq         0.0338557803    -1.3049193765    -0.1791990804
Bq        -0.0431808126    -1.3476023536     0.1075822419
Bq         0.0595346446    -1.2906917174    -0.2747928545
Bq        -0.0688596770    -1.3618300126     0.2031760160
Bq         0.0852135090    -1.2764640584    -0.3703866285
Bq        -0.0945385413    -1.3760576716     0.2987697901
Bq         0.1108923733    -1.2622363994    -0.4659804026
Bq        -0.1202174056    -1.3902853306     0.3943635642
Bq         0.1365712376    -1.2480087404    -0.5615741767
Bq         0.0081769160    -1.3191470355    -0.0836053063
Bq        -0.0211929989    -1.2343920005     0.0257290074
Bq         0.0301647298    -1.2059366824    -0.1654585408
Bq        -0.0468718632    -1.2486196595     0.1213227815
Bq         0.0558435941    -1.1917090234    -0.2610523149
Bq        -0.0725507275    -1.2628473185     0.2169165556
Bq         0.0815224584    -1.1774813644    -0.3566460890
Bq        -0.0982295918    -1.2770749776     0.3125103297
Bq         0.1072013228    -1.1632537054    -0.4522398631
Bq        -0.1239084561    -1.2913026366     0.4081041038
Bq         0.1328801871    -1.1490260463    -0.5478336372
Bq         0.0044858655    -1.2201643415    -0.0698647667
Bq        -0.0248840494    -1.1354093065     0.0394695470
Bq         0.0264736793    -1.1069539884    -0.1517180012
Bq        -0.0505629137    -1.1496369655     0.1350633210
Bq         0.0521525436    -1.0927263294    -0.2473117753
Bq        -0.0762417780    -1.1638646245     0.2306570951
Bq         0.0778314079    -1.0784986703    -0.3429055494
Bq        -0.1019206424    -1.1780922835     0.3262508692
Bq         0.1035102722    -1.0642710113    -0.4384993235
Bq        -0.1275995067    -1.1923199426     0.4218446433
Bq         0.1291891365    -1.0500433523    -0.5340930976
Bq         0.0007948149    -1.1211816474    -0.0561242271
Bq        -0.0285750999    -1.0364266124     0.0532100865
Bq         0.0227826287    -1.0079712944    -0.1379774617
Bq        -0.0542539642    -1.0506542714     0.1488038606
Bq         0.0484614930    -0.9937436353    -0.2335712358
Bq        -0.0799328286    -1.0648819305     0.2443976347
Bq         0.0741403574    -0.9795159763    -0.3291650099
Bq        -0.1056116929    -1.0791095895     0.3399914088
Bq         0.0998192217    -0.9652883173    -0.4247587840
Bq        -0.1312905572    -1.0933372485     0.4355851829
Bq         0.1254980860    -0.9510606583    -0.5203525581
Bq        -0.0028962356    -1.0221989534    -0.0423836876
Bq        -0.0322661505    -0.9374439184     0.0669506261
Bq         0.0190915782    -0.9089886003    -0.1242369221
Bq        -0.0579450148    -0.9516715774     0.1625444002
Bq         0.0447704425    -0.8947609413    -0.2198306962
Bq        -0.0836238791    -0.9658992364     0.2581381743
Bq         0.0704493068    -0.8805332823    -0.3154244703
Bq        -0.1093027434    -0.9801268955     0.3537319484
Bq         0.0961281712    -0.8663056232    -0.4110182444
Bq        -0.1349816078    -0.9943545545     0.4493257224
Bq         0.1218070355    -0.8520779642    -0.5066120185
Bq        -0.0065872861    -0.9232162594    -0.0286431480
Bq        -0.0359572010    -0.8384612243     0.0806911656
Bq         0.0154005276    -0.8100059063    -0.1104963826
Bq        -0.0616360653    -0.8526888834     0.1762849397
Bq         0.0410793920    -0.7957782473    -0.2060901567
Bq        -0.0873149296    -0.8669165424     0.2718787138
Bq         0.0667582563    -0.7815505882    -0.3016839308
Bq        -0.1129937940    -0.8811442014     0.3674724879
Bq         0.0924371206    -0.7673229292    -0.3972777048
Bq        -0.1386726583    -0.8953718605     0.4630662620
Bq         0.1181159849    -0.7530952702    -0.4928714789
Bq        -0.0102783367    -0.8242335653    -0.0149026085
Bq        -0.0396482515    -0.7394785303     0.0944317052
Bq         0.0117094771    -0.7110232123    -0.0967558430
Bq        -0.0653271159    -0.7537061893     0.1900254793
Bq         0.0373883414    -0.6967955532    -0.1923496171
Bq        -0.0910059802    -0.7679338484     0.2856192534
Bq         0.0630672058    -0.6825678942    -0.2879433912
Bq        -0.1166848445    -0.7821615074     0.3812130275
Bq         0.0887460701    -0.6683402352    -0.3835371653
Bq        -0.1423637088    -0.7963891664     0.4768068016
Bq         0.1144249344    -0.6541125761    -0.4791309394
Bq        -0.0139693872    -0.7252508713    -0.0011620689
Bq        -0.0433393021    -0.6404958363     0.1081722447
Bq         0.0080184266    -0.6120405182    -0.0830153034
Bq        -0.0690181664    -0.6547234953     0.2037660188
Bq         0.0336972909    -0.5978128592    -0.1786090775
Bq        -0.0946970307    -0.6689511543     0.2993597929
Bq         0.0593761552    -0.5835852002    -0.2742028516
Bq        -0.1203758950    -0.6831788134     0.3949535670
Bq         0.0850550195    -0.5693575411    -0.3697966257
Bq        -0.1460547594    -0.6974064724     0.4905473411
Bq         0.1107338839    -0.5551298821    -0.4653903998
Bq        -0.0176604377    -0.6262681772     0.0125784707
Bq        -0.0470303526    -0.5415131422     0.1219127843
Bq         0.0043273760    -0.5130578242    -0.0692747639
Bq        -0.0727092169    -0.5557408013     0.2175065584
Bq         0.0300062404    -0.4988301652    -0.1648685380
Bq        -0.0983880812    -0.5699684603     0.3131003325
Bq         0.0556851047    -0.4846025061    -0.2604623121
Bq        -0.1240669456    -0.5841961193     0.4086941066
Bq         0.0813639690    -0.4703748471    -0.3560560862
Bq        -0.1497458099    -0.5984237784     0.5042878807
Bq         0.1070428333    -0.4561471881    -0.4516498603
Bq        -0.0213514883    -0.5272854832     0.0263190102
Bq        -0.0507214031    -0.4425304482     0.1356533239
Bq         0.0006363255    -0.4140751301    -0.0555342243
Bq        -0.0764002675    -0.4567581072     0.2312470980
Bq         0.0263151898    -0.3998474711    -0.1511279984
Bq        -0.1020791318    -0.4709857663     0.3268408721
Bq         0.0519940542    -0.3856198121    -0.2467217725
Bq        -0.1277579961    -0.4852134253     0.4224346461
Bq         0.0776729185    -0.3713921531    -0.3423155466
Bq        -0.1534368604    -0.4994410843     0.5180284202
Bq         0.1033517828    -0.3571644940    -0.4379093207
Bq        -0.0250425388    -0.4283027892     0.0400595498
Bq        -0.0544124537    -0.3435477542     0.1493938634
Bq        -0.0030547250    -0.3150924361    -0.0417936848

1
2
3
4
5
6
7
8
9
10
11
12
13
14
15
16
17
18
19
20
21
22
23
24
25
26
27
28
29
30
31
32
33
34
35
36
37
38
39
40
41
42
43
44
45
46
47
48
49
50
51
52
53
54
55
56
57
58
59
60
61
62
63
64
65
66
67
68
69
70
71
72
73
74
75
76
77
78
79
80
81
82
83
84
85
86
87
88
89
90
91
92
93
94
95
96
97
98
99
100
101
102
103
104
105
106
107
108
109
110
111
112
113
114
115
116
117
118
119
120
121
122
123
124
125
126
127
128
129
130
131
132
133
134
135
136
137
138
139
140
141
142
143
144
145
146
147
148
149
150
151
152
153
154
155
156
157
158
159
160
161
162
163
164
165
166
167
168
169
170
171
172
173
174
175
176
177
178
179
180
181
182
183
184
185
186
187
188
189
190
191
192
193
194
195
196
197
198
199
200
201
202
203
204
205
206
207
208
209
210
211
212
213
214
215
216
217
218
219
220
221
222
223
224
225
226
227
228
229
230
231
232
233
234
235
236

