%nproc=8
%mem=1000MB
# rb3lyp/6-311+g** NMR geom=connectivity

Title

0 1
C    -4.0500558   -0.5771862    0.8136712
H    -5.0263804   -1.0082727    1.0024760
C    -3.9381552    0.6617804    0.2400876
H    -4.8252424    1.2338890   -0.0111295
C    -2.6768410    1.2433246    0.0057578
C    -1.4974121    0.5051527    0.2848253
C    -1.6508332   -0.7338728    0.9404026
H    -0.7713646   -1.2730967    1.2633753
C    -2.8898548   -1.2624035    1.1994307
H    -2.9683706   -2.2124563    1.7152676
C    -2.5773185    2.5963696   -0.4192930
H    -3.4870728    3.1412239   -0.6474055
C    -1.3741895    3.2147896   -0.4364030
H    -1.2997315    4.2742019   -0.6578144
C    -0.1719488    2.4994090   -0.1734588
C    -0.2043917    1.1018437    0.0192689
C     1.0513491    3.2042560   -0.0676222
H     1.0427344    4.2819499   -0.1896997
C     2.1942091    2.5487446    0.2579577
H     3.1168527    3.0912848    0.4334727
C     2.2216473    1.1336562    0.2934990
C     1.0486931    0.3945528    0.0302412
C     3.4483363    0.4614633    0.5573939
H     4.3095794    1.0606054    0.8334846
C     3.5427346   -0.8855926    0.4749463
H     4.4731467   -1.3939704    0.7038822
C     2.4490052   -1.6474447   -0.0196319
C     1.2150704   -1.0057258   -0.3013573
C     0.2531113   -1.7434440   -1.0216591
H    -0.6541356   -1.2535051   -1.3462847
C     0.4494193   -3.0628597   -1.3413779
H    -0.3083162   -3.5944309   -1.9054060
C     1.6251726   -3.7207967   -0.9552541
H     1.7670048   -4.7687404   -1.1927019
C     2.6109872   -3.0144177   -0.3183050
H     3.5525612   -3.4902813   -0.0646367
Bq        -4.6870057010    -0.0830273517     1.3775112941
Bq        -4.6855897187    -0.2569582197     1.0173085065
Bq        -4.6873596966    -0.0395446346     1.4675619910
Bq        -4.6852357231    -0.3004409367     0.9272578097
Bq        -4.6877136921     0.0039380824     1.5576126878
Bq        -4.6848817275    -0.3439236537     0.8372071128
Bq        -4.6880676877     0.0474207994     1.6476633847
Bq        -4.6845277320    -0.3874063707     0.7471564159
Bq        -4.6862977098    -0.1699927857     1.1974099003
Bq        -4.6864807731    -0.0364586760     1.2439782162
Bq        -4.6857727820    -0.1234241100     1.0638768224
Bq        -4.6868347687     0.0070240410     1.3340289130
Bq        -4.6854187864    -0.1669068270     0.9738261255
Bq        -4.6871887643     0.0505067580     1.4240796099
Bq        -4.6850647908    -0.2103895440     0.8837754286
Bq        -4.6875427599     0.0939894750     1.5141303068
Bq        -4.6847107953    -0.2538722610     0.7937247317
Bq        -4.6878967554     0.1374721920     1.6041810037
Bq        -4.6843567997    -0.2973549780     0.7036740349
Bq        -4.6861267776    -0.0799413930     1.1539275193
Bq        -4.6863098409     0.0535927167     1.2004958351
Bq        -4.6856018497    -0.0333727173     1.0203944414
Bq        -4.6866638364     0.0970754337     1.2905465320
Bq        -4.6852478541    -0.0768554343     0.9303437445
Bq        -4.6870178320     0.1405581507     1.3805972289
Bq        -4.6848938586    -0.1203381513     0.8402930476
Bq        -4.6873718276     0.1840408677     1.4706479258
Bq        -4.6845398630    -0.1638208683     0.7502423507
Bq        -4.6877258232     0.2275235847     1.5606986227
Bq        -4.6841858674    -0.2073035853     0.6601916538
Bq        -4.6859558453     0.0101099997     1.1104451382
Bq        -4.6861389086     0.1436441094     1.1570134541
Bq        -4.6854309174     0.0566786753     0.9769120603
Bq        -4.6864929042     0.1871268264     1.2470641510
Bq        -4.6850769219     0.0131959583     0.8868613634
Bq        -4.6868468997     0.2306095434     1.3371148479
Bq        -4.6847229263    -0.0302867587     0.7968106666
Bq        -4.6872008953     0.2740922604     1.4271655447
Bq        -4.6843689307    -0.0737694757     0.7067599697
Bq        -4.6875548909     0.3175749774     1.5172162416
Bq        -4.6840149351    -0.1172521927     0.6167092728
Bq        -4.6857849130     0.1001613924     1.0669627572
Bq        -4.6859679763     0.2336955020     1.1135310731
Bq        -4.6852599852     0.1467300680     0.9334296793
Bq        -4.6863219719     0.2771782190     1.2035817699
Bq        -4.6849059896     0.1032473510     0.8433789824
Bq        -4.6866759675     0.3206609360     1.2936324668
Bq        -4.6845519940     0.0597646340     0.7533282855
Bq        -4.6870299630     0.3641436530     1.3836831637
Bq        -4.6841979984     0.0162819170     0.6632775886
Bq        -4.6873839586     0.4076263700     1.4737338606
Bq        -4.6838440029    -0.0272008000     0.5732268918
Bq        -4.6856139807     0.1902127850     1.0234803762
Bq        -4.6857970440     0.3237468947     1.0700486920
Bq        -4.6850890529     0.2367814607     0.8899472983
Bq        -4.6861510396     0.3672296117     1.1600993889
Bq        -4.6847350573     0.1932987437     0.7998966014
Bq        -4.6865050352     0.4107123287     1.2501500858
Bq        -4.6843810617     0.1498160267     0.7098459045
Bq        -4.6868590308     0.4541950457     1.3402007827
Bq        -4.6840270662     0.1063333097     0.6197952076
Bq        -4.6872130263     0.4976777627     1.4302514796
Bq        -4.6836730706     0.0628505927     0.5297445107
Bq        -4.6854430485     0.2802641777     0.9799979951
Bq        -4.6856261118     0.4137982874     1.0265663110
Bq        -4.6849181206     0.3268328534     0.8464649172
Bq        -4.6859801073     0.4572810044     1.1166170079
Bq        -4.6845641250     0.2833501364     0.7564142203
Bq        -4.6863341029     0.5007637214     1.2066677048
Bq        -4.6842101295     0.2398674194     0.6663635235
Bq        -4.6866880985     0.5442464384     1.2967184016
Bq        -4.6838561339     0.1963847023     0.5763128266
Bq        -4.6870420941     0.5877291554     1.3867690985
Bq        -4.6835021383     0.1529019853     0.4862621297
Bq        -4.6852721162     0.3703155704     0.9365156141
Bq        -4.6854551795     0.5038496800     0.9830839300
Bq        -4.6847471883     0.4168842460     0.8029825362
Bq        -4.6858091751     0.5473323970     1.0731346268
Bq        -4.6843931928     0.3734015290     0.7129318393
Bq        -4.6861631706     0.5908151140     1.1631853237
Bq        -4.6840391972     0.3299188120     0.6228811424
Bq        -4.6865171662     0.6342978311     1.2532360206
Bq        -4.6836852016     0.2864360950     0.5328304455
Bq        -4.6868711618     0.6777805481     1.3432867175
Bq        -4.6833312060     0.2429533780     0.4427797487
Bq        -4.6851011839     0.4603669630     0.8930332331
Bq        -4.6852842472     0.5939010727     0.9396015489
Bq        -4.6845762561     0.5069356387     0.7595001552
Bq        -4.6856382428     0.6373837897     1.0296522458
Bq        -4.6842222605     0.4634529217     0.6694494583
Bq        -4.6859922384     0.6808665067     1.1197029427
Bq        -4.6838682649     0.4199702047     0.5793987614
Bq        -4.6863462339     0.7243492237     1.2097536396
Bq        -4.6835142693     0.3764874877     0.4893480645
Bq        -4.6867002295     0.7678319407     1.2998043365
Bq        -4.6831602738     0.3330047707     0.3992973676
Bq        -4.6849302516     0.5504183557     0.8495508520
Bq        -4.6851133149     0.6839524654     0.8961191679
Bq        -4.6844053238     0.5969870314     0.7160177741
Bq        -4.6854673105     0.7274351824     0.9861698648
Bq        -4.6840513282     0.5535043144     0.6259670773
Bq        -4.6858213061     0.7709178994     1.0762205617
Bq        -4.6836973326     0.5100215974     0.5359163804
Bq        -4.6861753017     0.8144006164     1.1662712585
Bq        -4.6833433371     0.4665388804     0.4458656835
Bq        -4.6865292972     0.8578833334     1.2563219554
Bq        -4.6829893415     0.4230561634     0.3558149866
Bq        -4.6847593194     0.6404697484     0.8060684710
Bq        -4.6849423827     0.7740038581     0.8526367869
Bq        -4.6842343915     0.6870384240     0.6725353931
Bq        -4.6852963782     0.8174865751     0.9426874837
Bq        -4.6838803959     0.6435557070     0.5824846962
Bq        -4.6856503738     0.8609692921     1.0327381806
Bq        -4.6835264004     0.6000729900     0.4924339993
Bq        -4.6860043694     0.9044520091     1.1227888775
Bq        -4.6831724048     0.5565902730     0.4023833025
Bq        -4.6863583650     0.9479347261     1.2128395744
Bq        -4.6828184092     0.5131075560     0.3123326056
Bq        -4.6845883871     0.7305211410     0.7625860900
Bq        -4.6847714504     0.8640552507     0.8091544058
Bq        -4.6840634592     0.7770898167     0.6290530121
Bq        -4.6851254460     0.9075379677     0.8992051027
Bq        -4.6837094637     0.7336070997     0.5390023152
Bq        -4.6854794415     0.9510206847     0.9892557996
Bq        -4.6833554681     0.6901243827     0.4489516183
Bq        -4.6858334371     0.9945034017     1.0793064965
Bq        -4.6830014725     0.6466416657     0.3589009214
Bq        -4.6861874327     1.0379861187     1.1693571934
Bq        -4.6826474769     0.6031589487     0.2688502245
Bq        -4.6844174548     0.8205725337     0.7191037090
Bq        -4.6846005181     0.9541066434     0.7656720248
Bq        -4.6838925270     0.8671412094     0.5855706310
Bq        -4.6849545137     0.9975893604     0.8557227217
Bq        -4.6835385314     0.8236584924     0.4955199342
Bq        -4.6853085093     1.0410720774     0.9457734186
Bq        -4.6831845358     0.7801757754     0.4054692373
Bq        -4.6856625048     1.0845547944     1.0358241154
Bq        -4.6828305402     0.7366930584     0.3154185404
Bq        -4.6860165004     1.1280375114     1.1258748123
Bq        -4.6824765447     0.6932103414     0.2253678435
Bq        -4.6842465225     0.9106239264     0.6756213279
Bq        -4.6844295858     1.0441580361     0.7221896438
Bq        -4.6837215947     0.9571926021     0.5420882500
Bq        -4.6847835814     1.0876407531     0.8122403407
Bq        -4.6833675991     0.9137098850     0.4520375531
Bq        -4.6851375770     1.1311234701     0.9022910375
Bq        -4.6830136035     0.8702271680     0.3619868562
Bq        -4.6854915726     1.1746061871     0.9923417344
Bq        -4.6826596080     0.8267444510     0.2719361594
Bq        -4.6858455681     1.2180889041     1.0823924313
Bq        -4.6823056124     0.7832617340     0.1818854625
Bq        -4.6840755903     1.0006753191     0.6321389469
Bq        -4.6842586536     1.1342094287     0.6787072627
Bq        -4.6835506624     1.0472439947     0.4986058690
Bq        -4.6846126491     1.1776921457     0.7687579596
Bq        -4.6831966668     1.0037612777     0.4085551721
Bq        -4.6849666447     1.2211748627     0.8588086565
Bq        -4.6828426713     0.9602785607     0.3185044752
Bq        -4.6853206403     1.2646575797     0.9488593534
Bq        -4.6824886757     0.9167958437     0.2284537783
Bq        -4.6856746359     1.3081402968     1.0389100503
Bq        -4.6821346801     0.8733131267     0.1384030814
Bq        -4.6839046580     1.0907267117     0.5886565659
Bq        -4.6840877213     1.2242608214     0.6352248817
Bq        -4.6833797301     1.1372953874     0.4551234879
Bq        -4.6844417169     1.2677435384     0.7252755786
Bq        -4.6830257346     1.0938126704     0.3650727911
Bq        -4.6847957124     1.3112262554     0.8153262755
Bq        -4.6826717390     1.0503299534     0.2750220942
Bq        -4.6851497080     1.3547089724     0.9053769724
Bq        -4.6823177434     1.0068472364     0.1849713973
Bq        -4.6855037036     1.3981916894     0.9954276692
Bq        -4.6819637478     0.9633645194     0.0949207004
Bq        -4.6837337257     1.1807781044     0.5451741848
Bq        -4.6839167890     1.3143122141     0.5917425007
Bq        -4.6832087979     1.2273467801     0.4116411069
Bq        -4.6842707846     1.3577949311     0.6817931976
Bq        -4.6828548023     1.1838640631     0.3215904100
Bq        -4.6846247802     1.4012776481     0.7718438944
Bq        -4.6825008067     1.1403813461     0.2315397131
Bq        -4.6849787757     1.4447603651     0.8618945913
Bq        -4.6821468111     1.0968986291     0.1414890163
Bq        -4.6853327713     1.4882430821     0.9519452882
Bq        -4.6817928156     1.0534159120     0.0514383194
Bq        -4.6835627934     1.2708294971     0.5016918038
Bq        -4.6837458567     1.4043636067     0.5482601196
Bq        -4.6830378656     1.3173981727     0.3681587259
Bq        -4.6840998523     1.4478463237     0.6383108165
Bq        -4.6826838700     1.2739154557     0.2781080290
Bq        -4.6844538479     1.4913290408     0.7283615134
Bq        -4.6823298744     1.2304327387     0.1880573321
Bq        -4.6848078435     1.5348117578     0.8184122103
Bq        -4.6819758789     1.1869500217     0.0980066352
Bq        -4.6851618390     1.5782944748     0.9084629072
Bq        -4.6816218833     1.1434673047     0.0079559383
Bq        -4.6833918612     1.3608808897     0.4582094228
Bq        -4.6835749245     1.4944149994     0.5047777386
Bq        -4.6828669333     1.4074495654     0.3246763448
Bq        -4.6839289200     1.5378977164     0.5948284355
Bq        -4.6825129377     1.3639668484     0.2346256480

1
2
3
4
5
6
7
8
9
10
11
12
13
14
15
16
17
18
19
20
21
22
23
24
25
26
27
28
29
30
31
32
33
34
35
36
37
38
39
40
41
42
43
44
45
46
47
48
49
50
51
52
53
54
55
56
57
58
59
60
61
62
63
64
65
66
67
68
69
70
71
72
73
74
75
76
77
78
79
80
81
82
83
84
85
86
87
88
89
90
91
92
93
94
95
96
97
98
99
100
101
102
103
104
105
106
107
108
109
110
111
112
113
114
115
116
117
118
119
120
121
122
123
124
125
126
127
128
129
130
131
132
133
134
135
136
137
138
139
140
141
142
143
144
145
146
147
148
149
150
151
152
153
154
155
156
157
158
159
160
161
162
163
164
165
166
167
168
169
170
171
172
173
174
175
176
177
178
179
180
181
182
183
184
185
186
187
188
189
190
191
192
193
194
195
196
197
198
199
200
201
202
203
204
205
206
207
208
209
210
211
212
213
214
215
216
217
218
219
220
221
222
223
224
225
226
227
228
229
230
231
232
233
234
235
236

