%nproc=8
%mem=1000MB
# rb3lyp/6-311+g** NMR geom=connectivity

Title

0 1
C    -4.0500558   -0.5771862    0.8136712
H    -5.0263804   -1.0082727    1.0024760
C    -3.9381552    0.6617804    0.2400876
H    -4.8252424    1.2338890   -0.0111295
C    -2.6768410    1.2433246    0.0057578
C    -1.4974121    0.5051527    0.2848253
C    -1.6508332   -0.7338728    0.9404026
H    -0.7713646   -1.2730967    1.2633753
C    -2.8898548   -1.2624035    1.1994307
H    -2.9683706   -2.2124563    1.7152676
C    -2.5773185    2.5963696   -0.4192930
H    -3.4870728    3.1412239   -0.6474055
C    -1.3741895    3.2147896   -0.4364030
H    -1.2997315    4.2742019   -0.6578144
C    -0.1719488    2.4994090   -0.1734588
C    -0.2043917    1.1018437    0.0192689
C     1.0513491    3.2042560   -0.0676222
H     1.0427344    4.2819499   -0.1896997
C     2.1942091    2.5487446    0.2579577
H     3.1168527    3.0912848    0.4334727
C     2.2216473    1.1336562    0.2934990
C     1.0486931    0.3945528    0.0302412
C     3.4483363    0.4614633    0.5573939
H     4.3095794    1.0606054    0.8334846
C     3.5427346   -0.8855926    0.4749463
H     4.4731467   -1.3939704    0.7038822
C     2.4490052   -1.6474447   -0.0196319
C     1.2150704   -1.0057258   -0.3013573
C     0.2531113   -1.7434440   -1.0216591
H    -0.6541356   -1.2535051   -1.3462847
C     0.4494193   -3.0628597   -1.3413779
H    -0.3083162   -3.5944309   -1.9054060
C     1.6251726   -3.7207967   -0.9552541
H     1.7670048   -4.7687404   -1.1927019
C     2.6109872   -3.0144177   -0.3183050
H     3.5525612   -3.4902813   -0.0646367
Bq         2.5909084827    -4.8554529545    -0.5472473734
Bq         2.3915996638    -4.9885312100    -0.1084237498
Bq         2.6307702465    -4.8288373034    -0.6350120981
Bq         2.3517379000    -5.0151468611    -0.0206590251
Bq         2.6706320103    -4.8022216522    -0.7227768228
Bq         2.3118761362    -5.0417625122     0.0671056996
Bq         2.7104937741    -4.7756060011    -0.8105415475
Bq         2.5111849551    -4.9086842567    -0.3717179240
Bq         2.4603167180    -4.8389069251    -0.2597199488
Bq         2.5400402456    -4.7856756229    -0.4352493982
Bq         2.4204549542    -4.8655225762    -0.1719552241
Bq         2.5799020093    -4.7590599717    -0.5230141229
Bq         2.3805931904    -4.8921382273    -0.0841904994
Bq         2.6197637731    -4.7324443206    -0.6107788477
Bq         2.3407314266    -4.9187538784     0.0035742253
Bq         2.6596255369    -4.7058286695    -0.6985435724
Bq         2.3008696628    -4.9453695295     0.0913389500
Bq         2.6994873007    -4.6792130184    -0.7863082971
Bq         2.5001784818    -4.8122912740    -0.3474846735
Bq         2.4493102446    -4.7425139424    -0.2354866983
Bq         2.5290337722    -4.6892826401    -0.4110161478
Bq         2.4094484808    -4.7691295935    -0.1477219736
Bq         2.5688955360    -4.6626669890    -0.4987808725
Bq         2.3695867170    -4.7957452446    -0.0599572489
Bq         2.6087572998    -4.6360513379    -0.5865455972
Bq         2.3297249533    -4.8223608957     0.0278074758
Bq         2.6486190636    -4.6094356868    -0.6743103219
Bq         2.2898631895    -4.8489765468     0.1155722005
Bq         2.6884808273    -4.5828200357    -0.7620750466
Bq         2.4891720084    -4.7158982912    -0.3232514231
Bq         2.4383037712    -4.6461209596    -0.2112534479
Bq         2.5180272988    -4.5928896574    -0.3867828973
Bq         2.3984420075    -4.6727366108    -0.1234887232
Bq         2.5578890626    -4.5662740063    -0.4745476220
Bq         2.3585802437    -4.6993522619    -0.0357239985
Bq         2.5977508264    -4.5396583552    -0.5623123467
Bq         2.3187184799    -4.7259679130     0.0520407263
Bq         2.6376125902    -4.5130427041    -0.6500770715
Bq         2.2788567161    -4.7525835641     0.1398054510
Bq         2.6774743540    -4.4864270530    -0.7378417962
Bq         2.4781655350    -4.6195053085    -0.2990181726
Bq         2.4272972979    -4.5497279769    -0.1870201974
Bq         2.5070208254    -4.4964966747    -0.3625496469
Bq         2.3874355341    -4.5763436280    -0.0992554727
Bq         2.5468825892    -4.4698810236    -0.4503143716
Bq         2.3475737703    -4.6029592791    -0.0114907480
Bq         2.5867443530    -4.4432653725    -0.5380790963
Bq         2.3077120065    -4.6295749303     0.0762739767
Bq         2.6266061168    -4.4166497214    -0.6258438210
Bq         2.2678502427    -4.6561905814     0.1640387014
Bq         2.6664678806    -4.3900340703    -0.7136085457
Bq         2.4671590617    -4.5231123258    -0.2747849221
Bq         2.4162908245    -4.4533349942    -0.1627869470
Bq         2.4960143521    -4.4001036920    -0.3383163964
Bq         2.3764290607    -4.4799506453    -0.0750222223
Bq         2.5358761159    -4.3734880409    -0.4260811211
Bq         2.3365672969    -4.5065662964     0.0127425025
Bq         2.5757378796    -4.3468723898    -0.5138458458
Bq         2.2967055331    -4.5331819475     0.1005072272
Bq         2.6155996434    -4.3202567387    -0.6016105705
Bq         2.2568437693    -4.5597975986     0.1882719519
Bq         2.6554614072    -4.2936410876    -0.6893752952
Bq         2.4561525883    -4.4267193431    -0.2505516717
Bq         2.4052843511    -4.3569420115    -0.1385536965
Bq         2.4850078787    -4.3037107093    -0.3140831459
Bq         2.3654225873    -4.3835576626    -0.0507889718
Bq         2.5248696425    -4.2770950582    -0.4018478707
Bq         2.3255608236    -4.4101733137     0.0369757529
Bq         2.5647314063    -4.2504794071    -0.4896125954
Bq         2.2856990598    -4.4367889648     0.1247404776
Bq         2.6045931701    -4.2238637560    -0.5773773201
Bq         2.2458372960    -4.4634046159     0.2125052023
Bq         2.6444549339    -4.1972481049    -0.6651420448
Bq         2.4451461149    -4.3303263604    -0.2263184212
Bq         2.3942778778    -4.2605490288    -0.1143204461
Bq         2.4740014053    -4.2073177266    -0.2898498955
Bq         2.3544161140    -4.2871646799    -0.0265557213
Bq         2.5138631691    -4.1807020755    -0.3776146202
Bq         2.3145543502    -4.3137803310     0.0612090034
Bq         2.5537249329    -4.1540864244    -0.4653793449
Bq         2.2746925864    -4.3403959821     0.1489737281
Bq         2.5935866967    -4.1274707733    -0.5531440696
Bq         2.2348308226    -4.3670116332     0.2367384528
Bq         2.6334484605    -4.1008551222    -0.6409087943
Bq         2.4341396415    -4.2339333777    -0.2020851708
Bq         2.3832714044    -4.1641560461    -0.0900871956
Bq         2.4629949320    -4.1109247439    -0.2656166450
Bq         2.3434096406    -4.1907716972    -0.0023224709
Bq         2.5028566957    -4.0843090928    -0.3533813697
Bq         2.3035478768    -4.2173873483     0.0854422538
Bq         2.5427184595    -4.0576934417    -0.4411460944
Bq         2.2636861130    -4.2440029994     0.1732069785
Bq         2.5825802233    -4.0310777905    -0.5289108192
Bq         2.2238243492    -4.2706186505     0.2609717033
Bq         2.6224419871    -4.0044621394    -0.6166755439
Bq         2.4231331682    -4.1375403950    -0.1778519203
Bq         2.3722649310    -4.0677630634    -0.0658539451
Bq         2.4519884586    -4.0145317612    -0.2413833946
Bq         2.3324031672    -4.0943787145     0.0219107796
Bq         2.4918502224    -3.9879161100    -0.3291481193
Bq         2.2925414034    -4.1209943656     0.1096755043
Bq         2.5317119862    -3.9613004589    -0.4169128440
Bq         2.2526796396    -4.1476100167     0.1974402290
Bq         2.5715737499    -3.9346848078    -0.5046775687
Bq         2.2128178759    -4.1742256678     0.2852049537
Bq         2.6114355137    -3.9080691567    -0.5924422934
Bq         2.4121266948    -4.0411474123    -0.1536186699
Bq         2.3612584576    -3.9713700807    -0.0416206947
Bq         2.4409819852    -3.9181387784    -0.2171501441
Bq         2.3213966939    -3.9979857318     0.0461440300
Bq         2.4808437490    -3.8915231273    -0.3049148688
Bq         2.2815349301    -4.0246013829     0.1339087547
Bq         2.5207055128    -3.8649074762    -0.3926795935
Bq         2.2416731663    -4.0512170340     0.2216734795
Bq         2.5605672766    -3.8382918251    -0.4804443182
Bq         2.2018114025    -4.0778326851     0.3094382042
Bq         2.6004290404    -3.8116761740    -0.5682090430
Bq         2.4011202214    -3.9447544296    -0.1293854194
Bq         2.3502519843    -3.8749770979    -0.0173874442
Bq         2.4299755118    -3.8217457957    -0.1929168936
Bq         2.3103902205    -3.9015927491     0.0703772805
Bq         2.4698372756    -3.7951301446    -0.2806816184
Bq         2.2705284567    -3.9282084002     0.1581420052
Bq         2.5096990394    -3.7685144935    -0.3684463431
Bq         2.2306666929    -3.9548240513     0.2459067299
Bq         2.5495608032    -3.7418988424    -0.4562110678
Bq         2.1908049291    -3.9814397024     0.3336714546
Bq         2.5894225670    -3.7152831913    -0.5439757925
Bq         2.3901137481    -3.8483614468    -0.1051521689
Bq         2.3392455109    -3.7785841152     0.0068458062
Bq         2.4189690385    -3.7253528130    -0.1686836432
Bq         2.2993837471    -3.8051997663     0.0946105309
Bq         2.4588308023    -3.6987371619    -0.2564483679
Bq         2.2595219833    -3.8318154174     0.1823752557
Bq         2.4986925660    -3.6721215108    -0.3442130926
Bq         2.2196602195    -3.8584310686     0.2701399804
Bq         2.5385543298    -3.6455058597    -0.4319778173
Bq         2.1797984557    -3.8850467197     0.3579047051
Bq         2.5784160936    -3.6188902086    -0.5197425420
Bq         2.3791072747    -3.7519684641    -0.0809189185
Bq         2.3282390375    -3.6821911325     0.0310790567
Bq         2.4079625651    -3.6289598303    -0.1444503927
Bq         2.2883772737    -3.7088067836     0.1188437814
Bq         2.4478243289    -3.6023441792    -0.2322151174
Bq         2.2485155099    -3.7354224347     0.2066085061
Bq         2.4876860927    -3.5757285281    -0.3199798422
Bq         2.2086537462    -3.7620380858     0.2943732308
Bq         2.5275478565    -3.5491128770    -0.4077445669
Bq         2.1687919824    -3.7886537369     0.3821379555
Bq         2.5674096202    -3.5224972259    -0.4955092916
Bq         2.3681008013    -3.6555754814    -0.0566856680
Bq         2.3172325642    -3.5857981498     0.0553123072
Bq         2.3969560917    -3.5325668476    -0.1202171423
Bq         2.2773708004    -3.6124138009     0.1430770319
Bq         2.4368178555    -3.5059511965    -0.2079818670
Bq         2.2375090366    -3.6390294520     0.2308417566
Bq         2.4766796193    -3.4793355454    -0.2957465917
Bq         2.1976472728    -3.6656451031     0.3186064813
Bq         2.5165413831    -3.4527198943    -0.3835113164
Bq         2.1577855090    -3.6922607542     0.4063712060
Bq         2.5564031469    -3.4261042432    -0.4712760411
Bq         2.3570943279    -3.5591824987    -0.0324524176
Bq         2.3062260908    -3.4894051671     0.0795455576
Bq         2.3859496184    -3.4361738649    -0.0959838918
Bq         2.2663643270    -3.5160208182     0.1673102823
Bq         2.4258113821    -3.4095582138    -0.1837486165
Bq         2.2265025632    -3.5426364693     0.2550750070
Bq         2.4656731459    -3.3829425627    -0.2715133412
Bq         2.1866407994    -3.5692521204     0.3428397317
Bq         2.5055349097    -3.3563269116    -0.3592780660
Bq         2.1467790356    -3.5958677715     0.4306044565
Bq         2.5453966735    -3.3297112605    -0.4470427907
Bq         2.3460878546    -3.4627895160    -0.0082191671
Bq         2.2952196174    -3.3930121844     0.1037788081
Bq         2.3749431450    -3.3397808822    -0.0717506414
Bq         2.2553578536    -3.4196278355     0.1915435328
Bq         2.4148049088    -3.3131652311    -0.1595153661
Bq         2.2154960898    -3.4462434866     0.2793082575
Bq         2.4546666726    -3.2865495800    -0.2472800908
Bq         2.1756343260    -3.4728591377     0.3670729822
Bq         2.4945284363    -3.2599339288    -0.3350448155
Bq         2.1357725623    -3.4994747888     0.4548377069
Bq         2.5343902001    -3.2333182777    -0.4228095402
Bq         2.3350813812    -3.3663965333     0.0160140834
Bq         2.2842131440    -3.2966192017     0.1280120585
Bq         2.3639366716    -3.2433878995    -0.0475173909
Bq         2.2443513802    -3.3232348528     0.2157767832
Bq         2.4037984354    -3.2167722484    -0.1352821156
Bq         2.2044896165    -3.3498505039     0.3035415079
Bq         2.4436601992    -3.1901565972    -0.2230468403
Bq         2.1646278527    -3.3764661550     0.3913062327
Bq         2.4835219630    -3.1635409461    -0.3108115650
Bq         2.1247660889    -3.4030818061     0.4790709574
Bq         2.5233837268    -3.1369252950    -0.3985762898
Bq         2.3240749078    -3.2700035506     0.0402473338
Bq         2.2732066707    -3.2002262190     0.1522453090
Bq         2.3529301982    -3.1469949167    -0.0232841404
Bq         2.2333449069    -3.2268418701     0.2400100337
Bq         2.3927919620    -3.1203792656    -0.1110488652
Bq         2.1934831431    -3.2534575212     0.3277747584

1
2
3
4
5
6
7
8
9
10
11
12
13
14
15
16
17
18
19
20
21
22
23
24
25
26
27
28
29
30
31
32
33
34
35
36
37
38
39
40
41
42
43
44
45
46
47
48
49
50
51
52
53
54
55
56
57
58
59
60
61
62
63
64
65
66
67
68
69
70
71
72
73
74
75
76
77
78
79
80
81
82
83
84
85
86
87
88
89
90
91
92
93
94
95
96
97
98
99
100
101
102
103
104
105
106
107
108
109
110
111
112
113
114
115
116
117
118
119
120
121
122
123
124
125
126
127
128
129
130
131
132
133
134
135
136
137
138
139
140
141
142
143
144
145
146
147
148
149
150
151
152
153
154
155
156
157
158
159
160
161
162
163
164
165
166
167
168
169
170
171
172
173
174
175
176
177
178
179
180
181
182
183
184
185
186
187
188
189
190
191
192
193
194
195
196
197
198
199
200
201
202
203
204
205
206
207
208
209
210
211
212
213
214
215
216
217
218
219
220
221
222
223
224
225
226
227
228
229
230
231
232
233
234
235
236

