%nproc=8
%mem=1000MB
# rb3lyp/6-311+g** NMR geom=connectivity

Title

0 1
C    -4.0500558   -0.5771862    0.8136712
H    -5.0263804   -1.0082727    1.0024760
C    -3.9381552    0.6617804    0.2400876
H    -4.8252424    1.2338890   -0.0111295
C    -2.6768410    1.2433246    0.0057578
C    -1.4974121    0.5051527    0.2848253
C    -1.6508332   -0.7338728    0.9404026
H    -0.7713646   -1.2730967    1.2633753
C    -2.8898548   -1.2624035    1.1994307
H    -2.9683706   -2.2124563    1.7152676
C    -2.5773185    2.5963696   -0.4192930
H    -3.4870728    3.1412239   -0.6474055
C    -1.3741895    3.2147896   -0.4364030
H    -1.2997315    4.2742019   -0.6578144
C    -0.1719488    2.4994090   -0.1734588
C    -0.2043917    1.1018437    0.0192689
C     1.0513491    3.2042560   -0.0676222
H     1.0427344    4.2819499   -0.1896997
C     2.1942091    2.5487446    0.2579577
H     3.1168527    3.0912848    0.4334727
C     2.2216473    1.1336562    0.2934990
C     1.0486931    0.3945528    0.0302412
C     3.4483363    0.4614633    0.5573939
H     4.3095794    1.0606054    0.8334846
C     3.5427346   -0.8855926    0.4749463
H     4.4731467   -1.3939704    0.7038822
C     2.4490052   -1.6474447   -0.0196319
C     1.2150704   -1.0057258   -0.3013573
C     0.2531113   -1.7434440   -1.0216591
H    -0.6541356   -1.2535051   -1.3462847
C     0.4494193   -3.0628597   -1.3413779
H    -0.3083162   -3.5944309   -1.9054060
C     1.6251726   -3.7207967   -0.9552541
H     1.7670048   -4.7687404   -1.1927019
C     2.6109872   -3.0144177   -0.3183050
H     3.5525612   -3.4902813   -0.0646367
Bq        -4.1909652686    -1.7070383784     2.3857434472
Bq        -4.1881333040    -2.0549001144     1.6653378721
Bq        -4.1913192642    -1.6635556614     2.4757941440
Bq        -4.1877793085    -2.0983828314     1.5752871752
Bq        -4.1895492863    -1.8809692464     2.0255406596
Bq        -4.1897323496    -1.7474351367     2.0721089755
Bq        -4.1890243585    -1.8344005707     1.8920075817
Bq        -4.1900863452    -1.7039524197     2.1621596724
Bq        -4.1886703629    -1.8778832877     1.8019568848
Bq        -4.1904403408    -1.6604697027     2.2522103693
Bq        -4.1883163673    -1.9213660047     1.7119061880
Bq        -4.1907943364    -1.6169869857     2.3422610661
Bq        -4.1879623718    -1.9648487217     1.6218554911
Bq        -4.1911483319    -1.5735042687     2.4323117630
Bq        -4.1876083762    -2.0083314388     1.5318047942
Bq        -4.1893783541    -1.7909178537     1.9820582786
Bq        -4.1895614174    -1.6573837441     2.0286265945
Bq        -4.1888534262    -1.7443491781     1.8485252007
Bq        -4.1899154129    -1.6139010270     2.1186772913
Bq        -4.1884994306    -1.7878318951     1.7584745038
Bq        -4.1902694085    -1.5704183100     2.2087279882
Bq        -4.1881454351    -1.8313146121     1.6684238069
Bq        -4.1906234041    -1.5269355930     2.2987786851
Bq        -4.1877914395    -1.8747973291     1.5783731100
Bq        -4.1909773997    -1.4834528760     2.3888293820
Bq        -4.1874374439    -1.9182800461     1.4883224132
Bq        -4.1892074218    -1.7008664611     1.9385758976
Bq        -4.1893904851    -1.5673323514     1.9851442134
Bq        -4.1886824939    -1.6542977854     1.8050428197
Bq        -4.1897444807    -1.5238496344     2.0751949103
Bq        -4.1883284984    -1.6977805024     1.7149921228
Bq        -4.1900984762    -1.4803669174     2.1652456072
Bq        -4.1879745028    -1.7412632194     1.6249414259
Bq        -4.1904524718    -1.4368842004     2.2552963041
Bq        -4.1876205072    -1.7847459364     1.5348907290
Bq        -4.1908064674    -1.3934014834     2.3453470010
Bq        -4.1872665116    -1.8282286534     1.4448400321
Bq        -4.1890364895    -1.6108150684     1.8950935165
Bq        -4.1892195528    -1.4772809587     1.9416618324
Bq        -4.1885115617    -1.5642463927     1.7615604386
Bq        -4.1895735484    -1.4337982417     2.0317125293
Bq        -4.1881575661    -1.6077291097     1.6715097417
Bq        -4.1899275440    -1.3903155247     2.1217632262
Bq        -4.1878035705    -1.6512118267     1.5814590449
Bq        -4.1902815395    -1.3468328077     2.2118139230
Bq        -4.1874495749    -1.6946945437     1.4914083480
Bq        -4.1906355351    -1.3033500907     2.3018646199
Bq        -4.1870955794    -1.7381772607     1.4013576511
Bq        -4.1888655572    -1.5207636757     1.8516111355
Bq        -4.1890486205    -1.3872295660     1.8981794514
Bq        -4.1883406294    -1.4741950001     1.7180780576
Bq        -4.1894026161    -1.3437468490     1.9882301482
Bq        -4.1879866338    -1.5176777171     1.6280273607
Bq        -4.1897566117    -1.3002641320     2.0782808451
Bq        -4.1876326382    -1.5611604341     1.5379766638
Bq        -4.1901106073    -1.2567814150     2.1683315420
Bq        -4.1872786427    -1.6046431511     1.4479259669
Bq        -4.1904646028    -1.2132986980     2.2583822389
Bq        -4.1869246471    -1.6481258681     1.3578752701
Bq        -4.1886946250    -1.4307122830     1.8081287545
Bq        -4.1888776883    -1.2971781734     1.8546970703
Bq        -4.1881696971    -1.3841436074     1.6745956766
Bq        -4.1892316838    -1.2536954564     1.9447477672
Bq        -4.1878157015    -1.4276263244     1.5845449797
Bq        -4.1895856794    -1.2102127394     2.0347984641
Bq        -4.1874617060    -1.4711090414     1.4944942828
Bq        -4.1899396750    -1.1667300224     2.1248491610
Bq        -4.1871077104    -1.5145917584     1.4044435859
Bq        -4.1902936706    -1.1232473054     2.2148998579
Bq        -4.1867537148    -1.5580744754     1.3143928890
Bq        -4.1885236927    -1.3406608904     1.7646463734
Bq        -4.1887067560    -1.2071267807     1.8112146893
Bq        -4.1879987648    -1.2940922147     1.6311132955
Bq        -4.1890607516    -1.1636440637     1.9012653862
Bq        -4.1876447693    -1.3375749317     1.5410625986
Bq        -4.1894147471    -1.1201613467     1.9913160831
Bq        -4.1872907737    -1.3810576487     1.4510119018
Bq        -4.1897687427    -1.0766786297     2.0813667799
Bq        -4.1869367781    -1.4245403657     1.3609612049
Bq        -4.1901227383    -1.0331959127     2.1714174768
Bq        -4.1865827825    -1.4680230827     1.2709105080
Bq        -4.1883527604    -1.2506094977     1.7211639924
Bq        -4.1885358237    -1.1170753880     1.7677323083
Bq        -4.1878278326    -1.2040408220     1.5876309145
Bq        -4.1888898193    -1.0735926710     1.8577830051
Bq        -4.1874738370    -1.2475235390     1.4975802176
Bq        -4.1892438149    -1.0301099540     1.9478337020
Bq        -4.1871198414    -1.2910062560     1.4075295207
Bq        -4.1895978104    -0.9866272370     2.0378843989
Bq        -4.1867658458    -1.3344889731     1.3174788238
Bq        -4.1899518060    -0.9431445200     2.1279350958
Bq        -4.1864118503    -1.3779716901     1.2274281270
Bq        -4.1881818281    -1.1605581050     1.6776816114
Bq        -4.1883648914    -1.0270239954     1.7242499272
Bq        -4.1876569003    -1.1139894294     1.5441485335
Bq        -4.1887188870    -0.9835412784     1.8143006241
Bq        -4.1873029047    -1.1574721464     1.4540978366
Bq        -4.1890728826    -0.9400585614     1.9043513210
Bq        -4.1869489091    -1.2009548634     1.3640471397
Bq        -4.1894268782    -0.8965758443     1.9944020179
Bq        -4.1865949136    -1.2444375804     1.2739964428
Bq        -4.1897808737    -0.8530931273     2.0844527148
Bq        -4.1862409180    -1.2879202974     1.1839457459
Bq        -4.1880108959    -1.0705067124     1.6341992303
Bq        -4.1881939592    -0.9369726027     1.6807675462
Bq        -4.1874859680    -1.0239380367     1.5006661524
Bq        -4.1885479547    -0.8934898857     1.7708182431
Bq        -4.1871319724    -1.0674207537     1.4106154555
Bq        -4.1889019503    -0.8500071687     1.8608689400
Bq        -4.1867779769    -1.1109034707     1.3205647587
Bq        -4.1892559459    -0.8065244517     1.9509196368
Bq        -4.1864239813    -1.1543861877     1.2305140618
Bq        -4.1896099415    -0.7630417347     2.0409703337
Bq        -4.1860699857    -1.1978689047     1.1404633649
Bq        -4.1878399636    -0.9804553197     1.5907168493
Bq        -4.1880230269    -0.8469212100     1.6372851652
Bq        -4.1873150357    -0.9338866440     1.4571837714
Bq        -4.1883770225    -0.8034384930     1.7273358620
Bq        -4.1869610402    -0.9773693610     1.3671330745
Bq        -4.1887310180    -0.7599557760     1.8173865589
Bq        -4.1866070446    -1.0208520780     1.2770823776
Bq        -4.1890850136    -0.7164730590     1.9074372558
Bq        -4.1862530490    -1.0643347950     1.1870316807
Bq        -4.1894390092    -0.6729903420     1.9974879527
Bq        -4.1858990534    -1.1078175120     1.0969809839
Bq        -4.1876690313    -0.8904039270     1.5472344683
Bq        -4.1878520946    -0.7568698173     1.5938027841
Bq        -4.1871441035    -0.8438352514     1.4137013904
Bq        -4.1882060902    -0.7133871003     1.6838534810
Bq        -4.1867901079    -0.8873179684     1.3236506935
Bq        -4.1885600858    -0.6699043833     1.7739041779
Bq        -4.1864361123    -0.9308006854     1.2335999966
Bq        -4.1889140813    -0.6264216663     1.8639548748
Bq        -4.1860821167    -0.9742834024     1.1435492997
Bq        -4.1892680769    -0.5829389493     1.9540055717
Bq        -4.1857281212    -1.0177661194     1.0534986028
Bq        -4.1874980990    -0.8003525344     1.5037520872
Bq        -4.1876811623    -0.6668184247     1.5503204031
Bq        -4.1869731712    -0.7537838587     1.3702190093
Bq        -4.1880351579    -0.6233357077     1.6403711000
Bq        -4.1866191756    -0.7972665757     1.2801683124
Bq        -4.1883891535    -0.5798529907     1.7304217969
Bq        -4.1862651800    -0.8407492927     1.1901176156
Bq        -4.1887431491    -0.5363702737     1.8204724937
Bq        -4.1859111845    -0.8842320097     1.1000669187
Bq        -4.1890971446    -0.4928875567     1.9105231906
Bq        -4.1855571889    -0.9277147267     1.0100162218
Bq        -4.1873271668    -0.7103011417     1.4602697062
Bq        -4.1875102301    -0.5767670320     1.5068380221
Bq        -4.1868022389    -0.6637324660     1.3267366283
Bq        -4.1878642256    -0.5332843150     1.5968887189
Bq        -4.1864482433    -0.7072151830     1.2366859314
Bq        -4.1882182212    -0.4898015980     1.6869394158
Bq        -4.1860942478    -0.7506979000     1.1466352345
Bq        -4.1885722168    -0.4463188810     1.7769901127
Bq        -4.1857402522    -0.7941806170     1.0565845377
Bq        -4.1889262124    -0.4028361640     1.8670408096
Bq        -4.1853862566    -0.8376633340     0.9665338408
Bq        -4.1871562345    -0.6202497490     1.4167873252
Bq        -4.1873392978    -0.4867156393     1.4633556410
Bq        -4.1866313066    -0.5736810733     1.2832542473
Bq        -4.1876932934    -0.4432329223     1.5534063379
Bq        -4.1862773111    -0.6171637904     1.1932035504
Bq        -4.1880472889    -0.3997502053     1.6434570348
Bq        -4.1859233155    -0.6606465074     1.1031528535
Bq        -4.1884012845    -0.3562674883     1.7335077317
Bq        -4.1855693199    -0.7041292244     1.0131021566
Bq        -4.1887552801    -0.3127847713     1.8235584286
Bq        -4.1852153243    -0.7476119414     0.9230514597
Bq        -4.1869853022    -0.5301983563     1.3733049441
Bq        -4.1871683655    -0.3966642467     1.4198732600
Bq        -4.1864603744    -0.4836296807     1.2397718662
Bq        -4.1875223611    -0.3531815297     1.5099239569
Bq        -4.1861063788    -0.5271123977     1.1497211694
Bq        -4.1878763567    -0.3096988127     1.5999746538
Bq        -4.1857523832    -0.5705951147     1.0596704725
Bq        -4.1882303522    -0.2662160957     1.6900253506
Bq        -4.1853983876    -0.6140778317     0.9696197756
Bq        -4.1885843478    -0.2227333786     1.7800760475
Bq        -4.1850443921    -0.6575605487     0.8795690787
Bq        -4.1868143699    -0.4401469637     1.3298225631
Bq        -4.1869974332    -0.3066128540     1.3763908790
Bq        -4.1862894421    -0.3935782880     1.1962894852
Bq        -4.1873514288    -0.2631301370     1.4664415758
Bq        -4.1859354465    -0.4370610050     1.1062387883
Bq        -4.1877054244    -0.2196474200     1.5564922727
Bq        -4.1855814509    -0.4805437220     1.0161880914
Bq        -4.1880594200    -0.1761647030     1.6465429696
Bq        -4.1852274554    -0.5240264390     0.9261373946
Bq        -4.1884134155    -0.1326819860     1.7365936665
Bq        -4.1848734598    -0.5675091560     0.8360866977
Bq        -4.1866434377    -0.3500955710     1.2863401821
Bq        -4.1868265010    -0.2165614613     1.3329084979
Bq        -4.1861185098    -0.3035268953     1.1528071042
Bq        -4.1871804965    -0.1730787443     1.4229591948
Bq        -4.1857645142    -0.3470096123     1.0627564073
Bq        -4.1875344921    -0.1295960273     1.5130098917
Bq        -4.1854105187    -0.3904923293     0.9727057104
Bq        -4.1878884877    -0.0861133103     1.6030605886
Bq        -4.1850565231    -0.4339750463     0.8826550135

1
2
3
4
5
6
7
8
9
10
11
12
13
14
15
16
17
18
19
20
21
22
23
24
25
26
27
28
29
30
31
32
33
34
35
36
37
38
39
40
41
42
43
44
45
46
47
48
49
50
51
52
53
54
55
56
57
58
59
60
61
62
63
64
65
66
67
68
69
70
71
72
73
74
75
76
77
78
79
80
81
82
83
84
85
86
87
88
89
90
91
92
93
94
95
96
97
98
99
100
101
102
103
104
105
106
107
108
109
110
111
112
113
114
115
116
117
118
119
120
121
122
123
124
125
126
127
128
129
130
131
132
133
134
135
136
137
138
139
140
141
142
143
144
145
146
147
148
149
150
151
152
153
154
155
156
157
158
159
160
161
162
163
164
165
166
167
168
169
170
171
172
173
174
175
176
177
178
179
180
181
182
183
184
185
186
187
188
189
190
191
192
193
194
195
196
197
198
199
200
201
202
203
204
205
206
207
208
209
210
211
212
213
214
215
216
217
218
219
220
221
222
223
224
225
226
227
228
229
230
231
232
233
234
235
236

