%nproc=8
%mem=1000MB
# rb3lyp/6-311+g** NMR geom=connectivity

Title

0 1
C    -4.0500558   -0.5771862    0.8136712
H    -5.0263804   -1.0082727    1.0024760
C    -3.9381552    0.6617804    0.2400876
H    -4.8252424    1.2338890   -0.0111295
C    -2.6768410    1.2433246    0.0057578
C    -1.4974121    0.5051527    0.2848253
C    -1.6508332   -0.7338728    0.9404026
H    -0.7713646   -1.2730967    1.2633753
C    -2.8898548   -1.2624035    1.1994307
H    -2.9683706   -2.2124563    1.7152676
C    -2.5773185    2.5963696   -0.4192930
H    -3.4870728    3.1412239   -0.6474055
C    -1.3741895    3.2147896   -0.4364030
H    -1.2997315    4.2742019   -0.6578144
C    -0.1719488    2.4994090   -0.1734588
C    -0.2043917    1.1018437    0.0192689
C     1.0513491    3.2042560   -0.0676222
H     1.0427344    4.2819499   -0.1896997
C     2.1942091    2.5487446    0.2579577
H     3.1168527    3.0912848    0.4334727
C     2.2216473    1.1336562    0.2934990
C     1.0486931    0.3945528    0.0302412
C     3.4483363    0.4614633    0.5573939
H     4.3095794    1.0606054    0.8334846
C     3.5427346   -0.8855926    0.4749463
H     4.4731467   -1.3939704    0.7038822
C     2.4490052   -1.6474447   -0.0196319
C     1.2150704   -1.0057258   -0.3013573
C     0.2531113   -1.7434440   -1.0216591
H    -0.6541356   -1.2535051   -1.3462847
C     0.4494193   -3.0628597   -1.3413779
H    -0.3083162   -3.5944309   -1.9054060
C     1.6251726   -3.7207967   -0.9552541
H     1.7670048   -4.7687404   -1.1927019
C     2.6109872   -3.0144177   -0.3183050
H     3.5525612   -3.4902813   -0.0646367
Bq        -1.7357917932     3.6321293674     0.3475189504
Bq        -1.7050559426     3.4357348284    -0.4273903943
Bq        -1.7396337745     3.6566786848     0.4443826185
Bq        -1.7012139612     3.4111855110    -0.5242540624
Bq        -1.7204238679     3.5339320979    -0.0399357220
Bq        -1.7232928950     3.6554212472     0.0323979167
Bq        -1.7156089323     3.6063226125    -0.1613294195
Bq        -1.7271348763     3.6799705646     0.1292615848
Bq        -1.7117669510     3.5817732951    -0.2581930876
Bq        -1.7309768576     3.7045198820     0.2261252529
Bq        -1.7079249697     3.5572239777    -0.3550567557
Bq        -1.7348188390     3.7290691993     0.3229889210
Bq        -1.7040829883     3.5326746603    -0.4519204238
Bq        -1.7386608203     3.7536185167     0.4198525890
Bq        -1.7002410070     3.5081253430    -0.5487840919
Bq        -1.7194509137     3.6308719298    -0.0644657514
Bq        -1.7223199408     3.7523610792     0.0078678873
Bq        -1.7146359781     3.7032624444    -0.1858594489
Bq        -1.7261619221     3.7769103965     0.1047315553
Bq        -1.7107939968     3.6787131270    -0.2827231170
Bq        -1.7300039034     3.8014597139     0.2015952234
Bq        -1.7069520155     3.6541638097    -0.3795867851
Bq        -1.7338458848     3.8260090313     0.2984588915
Bq        -1.7031100341     3.6296144923    -0.4764504532
Bq        -1.7376878661     3.8505583487     0.3953225596
Bq        -1.6992680528     3.6050651749    -0.5733141213
Bq        -1.7184779594     3.7278117618    -0.0889957808
Bq        -1.7213469865     3.8493009111    -0.0166621422
Bq        -1.7136630239     3.8002022763    -0.2103894783
Bq        -1.7251889679     3.8738502285     0.0802015259
Bq        -1.7098210426     3.7756529590    -0.3072531464
Bq        -1.7290309492     3.8983995458     0.1770651940
Bq        -1.7059790612     3.7511036416    -0.4041168145
Bq        -1.7328729305     3.9229488632     0.2739288621
Bq        -1.7021370799     3.7265543242    -0.5009804826
Bq        -1.7367149119     3.9474981806     0.3707925302
Bq        -1.6982950986     3.7020050068    -0.5978441507
Bq        -1.7175050052     3.8247515937    -0.1135258103
Bq        -1.7203740323     3.9462407430    -0.0411921716
Bq        -1.7126900697     3.8971421083    -0.2349195078
Bq        -1.7242160136     3.9707900604     0.0556714965
Bq        -1.7088480883     3.8725927909    -0.3317831759
Bq        -1.7280579950     3.9953393778     0.1525351646
Bq        -1.7050061070     3.8480434735    -0.4286468440
Bq        -1.7318999763     4.0198886952     0.2493988327
Bq        -1.7011641257     3.8234941562    -0.5255105120
Bq        -1.7357419576     4.0444380125     0.3462625008
Bq        -1.6973221443     3.7989448388    -0.6223741801
Bq        -1.7165320510     3.9216914257    -0.1380558397
Bq        -1.7194010781     4.0431805750    -0.0657222010
Bq        -1.7117171154     3.9940819402    -0.2594495372
Bq        -1.7232430594     4.0677298924     0.0311414671
Bq        -1.7078751341     3.9695326228    -0.3563132053
Bq        -1.7270850408     4.0922792097     0.1280051352
Bq        -1.7040331528     3.9449833055    -0.4531768734
Bq        -1.7309270221     4.1168285271     0.2248688032
Bq        -1.7001911714     3.9204339881    -0.5500405415
Bq        -1.7347690034     4.1413778445     0.3217324713
Bq        -1.6963491901     3.8958846707    -0.6469042096
Bq        -1.7155590968     4.0186312576    -0.1625858691
Bq        -1.7184281239     4.1401204069    -0.0902522304
Bq        -1.7107441612     4.0910217722    -0.2839795666
Bq        -1.7222701052     4.1646697243     0.0066114376
Bq        -1.7069021799     4.0664724548    -0.3808432347
Bq        -1.7261120865     4.1892190417     0.1034751057
Bq        -1.7030601986     4.0419231374    -0.4777069028
Bq        -1.7299540679     4.2137683590     0.2003387738
Bq        -1.6992182172     4.0173738200    -0.5745705709
Bq        -1.7337960492     4.2383176764     0.2972024419
Bq        -1.6953762359     3.9928245027    -0.6714342390
Bq        -1.7145861425     4.1155710895    -0.1871158985
Bq        -1.7174551696     4.2370602389    -0.1147822599
Bq        -1.7097712070     4.1879616041    -0.3085095961
Bq        -1.7212971510     4.2616095562    -0.0179185918
Bq        -1.7059292257     4.1634122867    -0.4053732641
Bq        -1.7251391323     4.2861588736     0.0789450763
Bq        -1.7020872443     4.1388629694    -0.5022369322
Bq        -1.7289811136     4.3107081910     0.1758087444
Bq        -1.6982452630     4.1143136520    -0.5991006003
Bq        -1.7328230950     4.3352575084     0.2726724125
Bq        -1.6944032817     4.0897643346    -0.6959642684
Bq        -1.7136131883     4.2125109215    -0.2116459280
Bq        -1.7164822154     4.3340000708    -0.1393122893
Bq        -1.7087982528     4.2849014360    -0.3330396255
Bq        -1.7203241967     4.3585493882    -0.0424486212
Bq        -1.7049562714     4.2603521187    -0.4299032936
Bq        -1.7241661781     4.3830987055     0.0544150469
Bq        -1.7011142901     4.2358028013    -0.5267669617
Bq        -1.7280081594     4.4076480229     0.1512787150
Bq        -1.6972723088     4.2112534839    -0.6236306298
Bq        -1.7318501407     4.4321973403     0.2481423831
Bq        -1.6934303274     4.1867041665    -0.7204942978
Bq        -1.7126402341     4.3094507534    -0.2361759574
Bq        -1.7155092612     4.4309399027    -0.1638423187
Bq        -1.7078252985     4.3818412680    -0.3575696549
Bq        -1.7193512425     4.4554892201    -0.0669786506
Bq        -1.7039833172     4.3572919506    -0.4544333230
Bq        -1.7231932239     4.4800385375     0.0298850174
Bq        -1.7001413359     4.3327426332    -0.5512969911
Bq        -1.7270352052     4.5045878549     0.1267486855
Bq        -1.6962993546     4.3081933159    -0.6481606592
Bq        -1.7308771865     4.5291371722     0.2236123536
Bq        -1.6924573732     4.2836439985    -0.7450243273
Bq        -1.7116672799     4.4063905854    -0.2607059868
Bq        -1.6642355406    -0.4160516942     1.0666224165
Bq        -1.6565515779    -0.4651503290     0.8728950803
Bq        -1.6680775219    -0.3915023768     1.1634860846
Bq        -1.6527095966    -0.4896996464     0.7760314122
Bq        -1.6719195032    -0.3669530595     1.2603497527
Bq        -1.6488676153    -0.5142489637     0.6791677441
Bq        -1.6757614846    -0.3424037421     1.3572134208
Bq        -1.6450256339    -0.5387982811     0.5823040760
Bq        -1.6796034659    -0.3178544247     1.4540770888
Bq        -1.6411836526    -0.5633475985     0.4854404080
Bq        -1.6603935593    -0.4406010116     0.9697587484
Bq        -1.6632625864    -0.3191118623     1.0420923871
Bq        -1.6555786237    -0.3682104970     0.8483650509
Bq        -1.6671045677    -0.2945625449     1.1389560552
Bq        -1.6517366424    -0.3927598144     0.7515013828
Bq        -1.6709465490    -0.2700132275     1.2358197232
Bq        -1.6478946610    -0.4173091318     0.6546377147
Bq        -1.6747885303    -0.2454639102     1.3326833913
Bq        -1.6440526797    -0.4418584492     0.5577740466
Bq        -1.6786305117    -0.2209145928     1.4295470594
Bq        -1.6402106984    -0.4664077665     0.4609103785
Bq        -1.6594206050    -0.3436611797     0.9452287190
Bq        -1.6622896321    -0.2221720303     1.0175623576
Bq        -1.6546056695    -0.2712706651     0.8238350215
Bq        -1.6661316135    -0.1976227130     1.1144260257
Bq        -1.6507636881    -0.2958199825     0.7269713534
Bq        -1.6699735948    -0.1730733956     1.2112896938
Bq        -1.6469217068    -0.3203692998     0.6301076853
Bq        -1.6738155761    -0.1485240782     1.3081533619
Bq        -1.6430797255    -0.3449186172     0.5332440172
Bq        -1.6776575575    -0.1239747608     1.4050170300
Bq        -1.6392377442    -0.3694679346     0.4363803491
Bq        -1.6584476508    -0.2467213477     0.9206986895
Bq        -1.6613166779    -0.1252321984     0.9930323282
Bq        -1.6536327153    -0.1743308332     0.7993049920
Bq        -1.6651586592    -0.1006828810     1.0898959963
Bq        -1.6497907339    -0.1988801505     0.7024413239
Bq        -1.6690006406    -0.0761335637     1.1867596644
Bq        -1.6459487526    -0.2234294679     0.6055776558
Bq        -1.6728426219    -0.0515842463     1.2836233325
Bq        -1.6421067713    -0.2479787853     0.5087139878
Bq        -1.6766846032    -0.0270349289     1.3804870006
Bq        -1.6382647899    -0.2725281027     0.4118503197
Bq        -1.6574746966    -0.1497815158     0.8961686601
Bq        -1.6603437237    -0.0282923665     0.9685022988
Bq        -1.6526597610    -0.0773910012     0.7747749626
Bq        -1.6641857050    -0.0037430491     1.0653659669
Bq        -1.6488177797    -0.1019403186     0.6779112945
Bq        -1.6680276863     0.0208062683     1.1622296350
Bq        -1.6449757984    -0.1264896360     0.5810476264
Bq        -1.6718696677     0.0453555857     1.2590933031
Bq        -1.6411338170    -0.1510389533     0.4841839583
Bq        -1.6757116490     0.0699049030     1.3559569711
Bq        -1.6372918357    -0.1755882707     0.3873202902
Bq        -1.6565017424    -0.0528416838     0.8716386307
Bq        -1.6593707695     0.0686474655     0.9439722694
Bq        -1.6516868068     0.0195488307     0.7502449332
Bq        -1.6632127508     0.0931967828     1.0408359374
Bq        -1.6478448255    -0.0050004867     0.6533812651
Bq        -1.6670547321     0.1177461002     1.1376996055
Bq        -1.6440028441    -0.0295498040     0.5565175970
Bq        -1.6708967135     0.1422954176     1.2345632736
Bq        -1.6401608628    -0.0540991214     0.4596539289
Bq        -1.6747386948     0.1668447350     1.3314269417
Bq        -1.6363188815    -0.0786484388     0.3627902608
Bq        -1.6555287881     0.0440981481     0.8471086013
Bq        -1.6583978152     0.1655872974     0.9194422399
Bq        -1.6507138526     0.1164886627     0.7257149037
Bq        -1.6622397966     0.1901366148     1.0163059080
Bq        -1.6468718713     0.0919393453     0.6288512357
Bq        -1.6660817779     0.2146859322     1.1131695761
Bq        -1.6430298899     0.0673900279     0.5319875676
Bq        -1.6699237592     0.2392352495     1.2100332442
Bq        -1.6391879086     0.0428407105     0.4351238995
Bq        -1.6737657406     0.2637845669     1.3068969123
Bq        -1.6353459273     0.0182913932     0.3382602314
Bq        -1.6545558339     0.1410379800     0.8225785718
Bq        -1.6574248610     0.2625271294     0.8949122105
Bq        -1.6497408984     0.2134284946     0.7011848743
Bq        -1.6612668423     0.2870764467     0.9917758786
Bq        -1.6458989170     0.1888791772     0.6043212062
Bq        -1.6651088237     0.3116257641     1.0886395467
Bq        -1.6420569357     0.1643298598     0.5074575381
Bq        -1.6689508050     0.3361750815     1.1855032148
Bq        -1.6382149544     0.1397805425     0.4105938701
Bq        -1.6727927863     0.3607243989     1.2823668829
Bq        -1.6343729730     0.1152312251     0.3137302020
Bq        -1.6535828797     0.2379778120     0.7980485424
Bq        -1.6564519068     0.3594669613     0.8703821811
Bq        -1.6487679441     0.3103683265     0.6766548449
Bq        -1.6602938881     0.3840162787     0.9672458492
Bq        -1.6449259628     0.2858190092     0.5797911768
Bq        -1.6641358694     0.4085655960     1.0641095173
Bq        -1.6410839815     0.2612696918     0.4829275087
Bq        -1.6679778508     0.4331149134     1.1609731853
Bq        -1.6372420001     0.2367203744     0.3860638406

1
2
3
4
5
6
7
8
9
10
11
12
13
14
15
16
17
18
19
20
21
22
23
24
25
26
27
28
29
30
31
32
33
34
35
36
37
38
39
40
41
42
43
44
45
46
47
48
49
50
51
52
53
54
55
56
57
58
59
60
61
62
63
64
65
66
67
68
69
70
71
72
73
74
75
76
77
78
79
80
81
82
83
84
85
86
87
88
89
90
91
92
93
94
95
96
97
98
99
100
101
102
103
104
105
106
107
108
109
110
111
112
113
114
115
116
117
118
119
120
121
122
123
124
125
126
127
128
129
130
131
132
133
134
135
136
137
138
139
140
141
142
143
144
145
146
147
148
149
150
151
152
153
154
155
156
157
158
159
160
161
162
163
164
165
166
167
168
169
170
171
172
173
174
175
176
177
178
179
180
181
182
183
184
185
186
187
188
189
190
191
192
193
194
195
196
197
198
199
200
201
202
203
204
205
206
207
208
209
210
211
212
213
214
215
216
217
218
219
220
221
222
223
224
225
226
227
228
229
230
231
232
233
234
235
236

