%nproc=8
%mem=1000MB
# rb3lyp/6-311+g** NMR geom=connectivity

Title

0 1
C    -4.0500558   -0.5771862    0.8136712
H    -5.0263804   -1.0082727    1.0024760
C    -3.9381552    0.6617804    0.2400876
H    -4.8252424    1.2338890   -0.0111295
C    -2.6768410    1.2433246    0.0057578
C    -1.4974121    0.5051527    0.2848253
C    -1.6508332   -0.7338728    0.9404026
H    -0.7713646   -1.2730967    1.2633753
C    -2.8898548   -1.2624035    1.1994307
H    -2.9683706   -2.2124563    1.7152676
C    -2.5773185    2.5963696   -0.4192930
H    -3.4870728    3.1412239   -0.6474055
C    -1.3741895    3.2147896   -0.4364030
H    -1.2997315    4.2742019   -0.6578144
C    -0.1719488    2.4994090   -0.1734588
C    -0.2043917    1.1018437    0.0192689
C     1.0513491    3.2042560   -0.0676222
H     1.0427344    4.2819499   -0.1896997
C     2.1942091    2.5487446    0.2579577
H     3.1168527    3.0912848    0.4334727
C     2.2216473    1.1336562    0.2934990
C     1.0486931    0.3945528    0.0302412
C     3.4483363    0.4614633    0.5573939
H     4.3095794    1.0606054    0.8334846
C     3.5427346   -0.8855926    0.4749463
H     4.4731467   -1.3939704    0.7038822
C     2.4490052   -1.6474447   -0.0196319
C     1.2150704   -1.0057258   -0.3013573
C     0.2531113   -1.7434440   -1.0216591
H    -0.6541356   -1.2535051   -1.3462847
C     0.4494193   -3.0628597   -1.3413779
H    -0.3083162   -3.5944309   -1.9054060
C     1.6251726   -3.7207967   -0.9552541
H     1.7670048   -4.7687404   -1.1927019
C     2.6109872   -3.0144177   -0.3183050
H     3.5525612   -3.4902813   -0.0646367
Bq         2.3522947176     1.2686306685     0.8266244929
Bq         2.2752581246     1.2259476914     1.1134058152
Bq         2.3779735819     1.2828583275     0.7310307188
Bq         2.2495792603     1.2117200323     1.2089995893
Bq         2.4036524462     1.2970859865     0.6354369447
Bq         2.2239003960     1.1974923733     1.3045933634
Bq         2.4293313105     1.3113136455     0.5398431706
Bq         2.1982215316     1.1832647143     1.4001871375
Bq         2.4550101749     1.3255413046     0.4442493965
Bq         2.3266158532     1.2544030094     0.9222182670
Bq         2.2972459384     1.3391580444     1.0315525806
Bq         2.3486036670     1.3676133625     0.8403650325
Bq         2.2715670741     1.3249303854     1.1271463547
Bq         2.3742825314     1.3818410215     0.7447712584
Bq         2.2458882097     1.3107027264     1.2227401288
Bq         2.3999613957     1.3960686806     0.6491774843
Bq         2.2202093454     1.2964750674     1.3183339029
Bq         2.4256402600     1.4102963396     0.5535837102
Bq         2.1945304811     1.2822474083     1.4139276770
Bq         2.4513191243     1.4245239986     0.4579899361
Bq         2.3229248027     1.3533857035     0.9359588066
Bq         2.2935548879     1.4381407385     1.0452931202
Bq         2.3449126165     1.4665960565     0.8541055720
Bq         2.2678760235     1.4239130794     1.1408868943
Bq         2.3705914808     1.4808237156     0.7585117979
Bq         2.2421971592     1.4096854204     1.2364806684
Bq         2.3962703451     1.4950513746     0.6629180238
Bq         2.2165182949     1.3954577614     1.3320744425
Bq         2.4219492095     1.5092790336     0.5673242497
Bq         2.1908394306     1.3812301024     1.4276682166
Bq         2.4476280738     1.5235066926     0.4717304756
Bq         2.3192337522     1.4523683975     0.9496993461
Bq         2.2898638373     1.5371234325     1.0590336598
Bq         2.3412215660     1.5655787506     0.8678461116
Bq         2.2641849730     1.5228957735     1.1546274339
Bq         2.3669004303     1.5798064096     0.7722523375
Bq         2.2385061087     1.5086681145     1.2502212080
Bq         2.3925792946     1.5940340686     0.6766585634
Bq         2.2128272444     1.4944404554     1.3458149820
Bq         2.4182581589     1.6082617277     0.5810647893
Bq         2.1871483800     1.4802127964     1.4414087561
Bq         2.4439370233     1.6224893867     0.4854710152
Bq         2.3155427016     1.5513510915     0.9634398857
Bq         2.2861727868     1.6361061265     1.0727741993
Bq         2.3375305154     1.6645614446     0.8815866511
Bq         2.2604939225     1.6218784675     1.1683679734
Bq         2.3632093798     1.6787891036     0.7859928770
Bq         2.2348150581     1.6076508085     1.2639617475
Bq         2.3888882441     1.6930167627     0.6903991029
Bq         2.2091361938     1.5934231495     1.3595555216
Bq         2.4145671084     1.7072444217     0.5948053289
Bq         2.1834573295     1.5791954904     1.4551492957
Bq         2.4402459727     1.7214720807     0.4992115548
Bq         2.3118516511     1.6503337856     0.9771804252
Bq         2.2824817362     1.7350888206     1.0865147389
Bq         2.3338394649     1.7635441386     0.8953271907
Bq         2.2568028719     1.7208611616     1.1821085130
Bq         2.3595183292     1.7777717977     0.7997334166
Bq         2.2311240076     1.7066335025     1.2777022871
Bq         2.3851971935     1.7919994567     0.7041396425
Bq         2.2054451433     1.6924058435     1.3732960612
Bq         2.4108760579     1.8062271157     0.6085458684
Bq         2.1797662790     1.6781781845     1.4688898353
Bq         2.4365549222     1.8204547748     0.5129520943
Bq         2.3081606006     1.7493164796     0.9909209648
Bq         2.2787906857     1.8340715146     1.1002552784
Bq         2.3301484144     1.8625268327     0.9090677303
Bq         2.2531118214     1.8198438556     1.1958490525
Bq         2.3558272787     1.8767544917     0.8134739562
Bq         2.2274329571     1.8056161966     1.2914428266
Bq         2.3815061430     1.8909821507     0.7178801821
Bq         2.2017540927     1.7913885375     1.3870366007
Bq         2.4071850073     1.9052098098     0.6222864080
Bq         2.1760752284     1.7771608785     1.4826303748
Bq         2.4328638716     1.9194374688     0.5266926339
Bq         2.3044695500     1.8482991736     1.0046615043
Bq         2.2750996352     1.9330542087     1.1139958180
Bq         2.3264573638     1.9615095267     0.9228082698
Bq         2.2494207709     1.9188265496     1.2095895921
Bq         2.3521362281     1.9757371857     0.8272144957
Bq         2.2237419065     1.9045988906     1.3051833662
Bq         2.3778150925     1.9899648448     0.7316207216
Bq         2.1980630422     1.8903712316     1.4007771403
Bq         2.4034939568     2.0041925038     0.6360269475
Bq         2.1723841779     1.8761435725     1.4963709144
Bq         2.4291728211     2.0184201628     0.5404331734
Bq         2.3007784995     1.9472818677     1.0184020439
Bq         2.2714085846     2.0320369027     1.1277363576
Bq         2.3227663133     2.0604922207     0.9365488094
Bq         2.2457297203     2.0178092437     1.2233301317
Bq         2.3484451776     2.0747198798     0.8409550353
Bq         2.2200508560     2.0035815846     1.3189239057
Bq         2.3741240419     2.0889475388     0.7453612612
Bq         2.1943719917     1.9893539256     1.4145176798
Bq         2.3998029063     2.1031751978     0.6497674871
Bq         2.1686931274     1.9751262666     1.5101114539
Bq         2.4254817706     2.1174028569     0.5541737130
Bq         2.2970874490     2.0462645617     1.0321425835
Bq         2.2677175341     2.1310195967     1.1414768971
Bq         2.3190752628     2.1594749148     0.9502893489
Bq         2.2420386698     2.1167919377     1.2370706712
Bq         2.3447541271     2.1737025738     0.8546955748
Bq         2.2163598055     2.1025642787     1.3326644453
Bq         2.3704329914     2.1879302328     0.7591018007
Bq         2.1906809411     2.0883366196     1.4282582194
Bq         2.3961118557     2.2021578919     0.6635080266
Bq         2.1650020768     2.0741089606     1.5238519935
Bq         2.4217907200     2.2163855509     0.5679142526
Bq         2.2933963984     2.1452472558     1.0458831230
Bq         2.5488463109    -2.8181151051     0.4803927010
Bq         2.6002040396    -2.7896597870     0.2892051528
Bq         2.5231674466    -2.8323427641     0.5759864751
Bq         2.6258829039    -2.7754321280     0.1936113787
Bq         2.4974885823    -2.8465704231     0.6715802492
Bq         2.6515617682    -2.7612044690     0.0980176046
Bq         2.4718097180    -2.8607980821     0.7671740232
Bq         2.6772406325    -2.7469768099     0.0024238305
Bq         2.4461308536    -2.8750257412     0.8627677973
Bq         2.7029194969    -2.7327491509    -0.0931699436
Bq         2.5745251752    -2.8038874460     0.3847989269
Bq         2.5451552604    -2.7191324110     0.4941332405
Bq         2.5965129890    -2.6906770930     0.3029456923
Bq         2.5194763961    -2.7333600701     0.5897270146
Bq         2.6221918534    -2.6764494339     0.2073519182
Bq         2.4937975317    -2.7475877291     0.6853207887
Bq         2.6478707177    -2.6622217749     0.1117581441
Bq         2.4681186674    -2.7618153881     0.7809145628
Bq         2.6735495820    -2.6479941159     0.0161643700
Bq         2.4424398031    -2.7760430471     0.8765083369
Bq         2.6992284463    -2.6337664569    -0.0794294040
Bq         2.5708341247    -2.7049047520     0.3985394664
Bq         2.5414642099    -2.6201497170     0.5078737801
Bq         2.5928219385    -2.5916943989     0.3166862319
Bq         2.5157853455    -2.6343773760     0.6034675542
Bq         2.6185008028    -2.5774667399     0.2210924578
Bq         2.4901064812    -2.6486050350     0.6990613283
Bq         2.6441796671    -2.5632390809     0.1254986837
Bq         2.4644276169    -2.6628326941     0.7946551024
Bq         2.6698585315    -2.5490114219     0.0299049096
Bq         2.4387487526    -2.6770603531     0.8902488765
Bq         2.6955373958    -2.5347837628    -0.0656888645
Bq         2.5671430742    -2.6059220580     0.4122800060
Bq         2.5377731593    -2.5211670230     0.5216143196
Bq         2.5891308880    -2.4927117049     0.3304267715
Bq         2.5120942950    -2.5353946820     0.6172080937
Bq         2.6148097523    -2.4784840459     0.2348329974
Bq         2.4864154307    -2.5496223410     0.7128018678
Bq         2.6404886166    -2.4642563868     0.1392392233
Bq         2.4607365663    -2.5638500000     0.8083956419
Bq         2.6661674809    -2.4500287278     0.0436454492
Bq         2.4350577020    -2.5780776591     0.9039894160
Bq         2.6918463453    -2.4358010688    -0.0519483249
Bq         2.5634520236    -2.5069393639     0.4260205455
Bq         2.5340821088    -2.4221843289     0.5353548592
Bq         2.5854398374    -2.3937290109     0.3441673110
Bq         2.5084032445    -2.4364119879     0.6309486333
Bq         2.6111187017    -2.3795013518     0.2485735369
Bq         2.4827243801    -2.4506396470     0.7265424074
Bq         2.6367975661    -2.3652736928     0.1529797628
Bq         2.4570455158    -2.4648673060     0.8221361815
Bq         2.6624764304    -2.3510460338     0.0573859887
Bq         2.4313666515    -2.4790949650     0.9177299556
Bq         2.6881552947    -2.3368183748    -0.0382077854
Bq         2.5597609731    -2.4079566699     0.4397610851
Bq         2.5303910582    -2.3232016349     0.5490953988
Bq         2.5817487869    -2.2947463168     0.3579078506
Bq         2.5047121939    -2.3374292939     0.6446891729
Bq         2.6074276512    -2.2805186578     0.2623140765
Bq         2.4790333296    -2.3516569529     0.7402829469
Bq         2.6331065155    -2.2662909988     0.1667203024
Bq         2.4533544653    -2.3658846120     0.8358767210
Bq         2.6587853799    -2.2520633397     0.0711265283
Bq         2.4276756010    -2.3801122710     0.9314704951
Bq         2.6844642442    -2.2378356807    -0.0244672458
Bq         2.5560699226    -2.3089739759     0.4535016247
Bq         2.5267000077    -2.2242189408     0.5628359383
Bq         2.5780577364    -2.1957636228     0.3716483901
Bq         2.5010211434    -2.2384465999     0.6584297124
Bq         2.6037366007    -2.1815359638     0.2760546160
Bq         2.4753422791    -2.2526742589     0.7540234865
Bq         2.6294154650    -2.1673083047     0.1804608419
Bq         2.4496634147    -2.2669019179     0.8496172606
Bq         2.6550943293    -2.1530806457     0.0848670678
Bq         2.4239845504    -2.2811295770     0.9452110347
Bq         2.6807731936    -2.1388529867    -0.0107267063
Bq         2.5523788720    -2.2099912818     0.4672421642
Bq         2.5230089572    -2.1252362468     0.5765764779
Bq         2.5743666858    -2.0967809288     0.3853889297
Bq         2.4973300929    -2.1394639058     0.6721702520
Bq         2.6000455501    -2.0825532697     0.2897951556
Bq         2.4716512285    -2.1536915649     0.7677640261
Bq         2.6257244145    -2.0683256107     0.1942013815
Bq         2.4459723642    -2.1679192239     0.8633578002
Bq         2.6514032788    -2.0540979517     0.0986076074
Bq         2.4202934999    -2.1821468829     0.9589515743
Bq         2.6770821431    -2.0398702926     0.0030138333
Bq         2.5486878215    -2.1110085878     0.4809827038
Bq         2.5193179066    -2.0262535528     0.5903170174
Bq         2.5706756353    -1.9977982347     0.3991294692
Bq         2.4936390423    -2.0404812118     0.6859107915

1
2
3
4
5
6
7
8
9
10
11
12
13
14
15
16
17
18
19
20
21
22
23
24
25
26
27
28
29
30
31
32
33
34
35
36
37
38
39
40
41
42
43
44
45
46
47
48
49
50
51
52
53
54
55
56
57
58
59
60
61
62
63
64
65
66
67
68
69
70
71
72
73
74
75
76
77
78
79
80
81
82
83
84
85
86
87
88
89
90
91
92
93
94
95
96
97
98
99
100
101
102
103
104
105
106
107
108
109
110
111
112
113
114
115
116
117
118
119
120
121
122
123
124
125
126
127
128
129
130
131
132
133
134
135
136
137
138
139
140
141
142
143
144
145
146
147
148
149
150
151
152
153
154
155
156
157
158
159
160
161
162
163
164
165
166
167
168
169
170
171
172
173
174
175
176
177
178
179
180
181
182
183
184
185
186
187
188
189
190
191
192
193
194
195
196
197
198
199
200
201
202
203
204
205
206
207
208
209
210
211
212
213
214
215
216
217
218
219
220
221
222
223
224
225
226
227
228
229
230
231
232
233
234
235
236

