%nproc=8
%mem=1000MB
# rb3lyp/6-311+g** NMR geom=connectivity

Title

0 1
C    -4.0500558   -0.5771862    0.8136712
H    -5.0263804   -1.0082727    1.0024760
C    -3.9381552    0.6617804    0.2400876
H    -4.8252424    1.2338890   -0.0111295
C    -2.6768410    1.2433246    0.0057578
C    -1.4974121    0.5051527    0.2848253
C    -1.6508332   -0.7338728    0.9404026
H    -0.7713646   -1.2730967    1.2633753
C    -2.8898548   -1.2624035    1.1994307
H    -2.9683706   -2.2124563    1.7152676
C    -2.5773185    2.5963696   -0.4192930
H    -3.4870728    3.1412239   -0.6474055
C    -1.3741895    3.2147896   -0.4364030
H    -1.2997315    4.2742019   -0.6578144
C    -0.1719488    2.4994090   -0.1734588
C    -0.2043917    1.1018437    0.0192689
C     1.0513491    3.2042560   -0.0676222
H     1.0427344    4.2819499   -0.1896997
C     2.1942091    2.5487446    0.2579577
H     3.1168527    3.0912848    0.4334727
C     2.2216473    1.1336562    0.2934990
C     1.0486931    0.3945528    0.0302412
C     3.4483363    0.4614633    0.5573939
H     4.3095794    1.0606054    0.8334846
C     3.5427346   -0.8855926    0.4749463
H     4.4731467   -1.3939704    0.7038822
C     2.4490052   -1.6474447   -0.0196319
C     1.2150704   -1.0057258   -0.3013573
C     0.2531113   -1.7434440   -1.0216591
H    -0.6541356   -1.2535051   -1.3462847
C     0.4494193   -3.0628597   -1.3413779
H    -0.3083162   -3.5944309   -1.9054060
C     1.6251726   -3.7207967   -0.9552541
H     1.7670048   -4.7687404   -1.1927019
C     2.6109872   -3.0144177   -0.3183050
H     3.5525612   -3.4902813   -0.0646367
Bq         0.7817103022     3.8309819645     0.3290604118
Bq         0.7382824431     3.8457224198     0.6255342556
Bq         0.7961862553     3.8260684795     0.2302357973
Bq         0.7238064901     3.8506359049     0.7243588702
Bq         0.8106622083     3.8211549944     0.1314111827
Bq         0.7093305370     3.8555493900     0.8231834848
Bq         0.8251381614     3.8162415093     0.0325865681
Bq         0.6948545840     3.8604628750     0.9220080994
Bq         0.8396141144     3.8113280242    -0.0662380465
Bq         0.7672343492     3.8358954496     0.4278850264
Bq         0.7534705301     3.9406881501     0.5218480363
Bq         0.7824224362     3.9308611799     0.3241988071
Bq         0.7389945771     3.9456016352     0.6206726508
Bq         0.7968983892     3.9259476948     0.2253741925
Bq         0.7245186240     3.9505151202     0.7194972654
Bq         0.8113743423     3.9210342098     0.1265495779
Bq         0.7100426710     3.9554286053     0.8183218800
Bq         0.8258502953     3.9161207247     0.0277249633
Bq         0.6955667179     3.9603420904     0.9171464946
Bq         0.8403262484     3.9112072396    -0.0710996513
Bq         0.7679464831     3.9357746650     0.4230234217
Bq         0.7541826640     4.0405673655     0.5169864315
Bq         0.7831345701     4.0307403953     0.3193372023
Bq         0.7397067110     4.0454808505     0.6158110461
Bq         0.7976105232     4.0258269102     0.2205125877
Bq         0.7252307580     4.0503943356     0.7146356607
Bq         0.8120864762     4.0209134251     0.1216879731
Bq         0.7107548049     4.0553078207     0.8134602752
Bq         0.8265624293     4.0159999400     0.0228633586
Bq         0.6962788519     4.0602213058     0.9122848898
Bq         0.8410383823     4.0110864550    -0.0759612560
Bq         0.7686586171     4.0356538804     0.4181618169
Bq         0.7548947980     4.1404465808     0.5121248267
Bq         0.7838467041     4.1306196107     0.3144755975
Bq         0.7404188449     4.1453600659     0.6109494413
Bq         0.7983226571     4.1257061256     0.2156509830
Bq         0.7259428919     4.1502735510     0.7097740559
Bq         0.8127986102     4.1207926405     0.1168263684
Bq         0.7114669389     4.1551870361     0.8085986705
Bq         0.8272745632     4.1158791554     0.0180017538
Bq         0.6969909858     4.1601005212     0.9074232851
Bq         0.8417505162     4.1109656703    -0.0808228608
Bq         0.7693707510     4.1355330958     0.4133002121
Bq         0.7556069319     4.2403257962     0.5072632220
Bq         0.7845588380     4.2304988260     0.3096139928
Bq         0.7411309789     4.2452392813     0.6060878365
Bq         0.7990347911     4.2255853410     0.2107893782
Bq         0.7266550258     4.2501527664     0.7049124511
Bq         0.8135107441     4.2206718559     0.1119647636
Bq         0.7121790728     4.2550662515     0.8037370657
Bq         0.8279866971     4.2157583708     0.0131401490
Bq         0.6977031197     4.2599797365     0.9025616803
Bq         0.8424626502     4.2108448857    -0.0856844656
Bq         0.7700828850     4.2354123111     0.4084386074
Bq         0.7563190659     4.3402050116     0.5024016172
Bq         0.7852709720     4.3303780414     0.3047523880
Bq         0.7418431128     4.3451184967     0.6012262318
Bq         0.7997469250     4.3254645563     0.2059277734
Bq         0.7273671598     4.3500319818     0.7000508464
Bq         0.8142228780     4.3205510713     0.1071031588
Bq         0.7128912067     4.3549454668     0.7988754609
Bq         0.8286988311     4.3156375862     0.0082785443
Bq         0.6984152537     4.3598589519     0.8977000755
Bq         0.8431747841     4.3107241011    -0.0905460703
Bq         0.7707950189     4.3352915265     0.4035770026
Bq         0.8196564927    -0.6537557573     0.7599753144
Bq         0.8486083987    -0.6635827274     0.5623260853
Bq         0.8051805396    -0.6488422722     0.8587999290
Bq         0.8630843518    -0.6684962125     0.4635014707
Bq         0.7907045866    -0.6439287871     0.9576245436
Bq         0.8775603048    -0.6734096976     0.3646768561
Bq         0.7762286335    -0.6390153020     1.0564491582
Bq         0.8920362579    -0.6783231827     0.2658522415
Bq         0.7617526805    -0.6341018169     1.1552737728
Bq         0.9065122109    -0.6832366678     0.1670276269
Bq         0.8341324457    -0.6586692423     0.6611506998
Bq         0.8203686266    -0.5538765419     0.7551137097
Bq         0.8493205327    -0.5637035121     0.5574644805
Bq         0.8058926736    -0.5489630568     0.8539383242
Bq         0.8637964857    -0.5686169971     0.4586398659
Bq         0.7914167205    -0.5440495717     0.9527629388
Bq         0.8782724388    -0.5735304822     0.3598152513
Bq         0.7769407675    -0.5391360866     1.0515875534
Bq         0.8927483918    -0.5784439673     0.2609906367
Bq         0.7624648144    -0.5342226016     1.1504121680
Bq         0.9072243449    -0.5833574524     0.1621660221
Bq         0.8348445796    -0.5587900270     0.6562890951
Bq         0.8210807605    -0.4539973265     0.7502521049
Bq         0.8500326666    -0.4638242967     0.5526028757
Bq         0.8066048075    -0.4490838414     0.8490767195
Bq         0.8645086197    -0.4687377818     0.4537782611
Bq         0.7921288544    -0.4441703563     0.9479013341
Bq         0.8789845727    -0.4736512668     0.3549536466
Bq         0.7776529014    -0.4392568713     1.0467259486
Bq         0.8934605258    -0.4785647519     0.2561290320
Bq         0.7631769484    -0.4343433862     1.1455505632
Bq         0.9079364788    -0.4834782370     0.1573044174
Bq         0.8355567136    -0.4589108116     0.6514274903
Bq         0.8217928945    -0.3541181111     0.7453905001
Bq         0.8507448006    -0.3639450813     0.5477412710
Bq         0.8073169414    -0.3492046261     0.8442151147
Bq         0.8652207536    -0.3688585664     0.4489166564
Bq         0.7928409884    -0.3442911410     0.9430397293
Bq         0.8796967067    -0.3737720515     0.3500920418
Bq         0.7783650353    -0.3393776559     1.0418643439
Bq         0.8941726597    -0.3786855365     0.2512674272
Bq         0.7638890823    -0.3344641708     1.1406889585
Bq         0.9086486127    -0.3835990216     0.1524428126
Bq         0.8362688475    -0.3590315962     0.6465658855
Bq         0.8225050284    -0.2542388958     0.7405288954
Bq         0.8514569345    -0.2640658659     0.5428796662
Bq         0.8080290754    -0.2493254107     0.8393535099
Bq         0.8659328876    -0.2689793510     0.4440550516
Bq         0.7935531223    -0.2444119256     0.9381781245
Bq         0.8804088406    -0.2738928361     0.3452304370
Bq         0.7790771693    -0.2394984405     1.0370027391
Bq         0.8948847936    -0.2788063212     0.2464058224
Bq         0.7646012162    -0.2345849554     1.1358273537
Bq         0.9093607467    -0.2837198063     0.1475812078
Bq         0.8369809815    -0.2591523808     0.6417042808
Bq         0.8232171624    -0.1543596804     0.7356672906
Bq         0.8521690685    -0.1641866505     0.5380180614
Bq         0.8087412093    -0.1494461953     0.8344919052
Bq         0.8666450215    -0.1691001356     0.4391934468
Bq         0.7942652563    -0.1445327102     0.9333165198
Bq         0.8811209745    -0.1740136207     0.3403688323
Bq         0.7797893032    -0.1396192251     1.0321411343
Bq         0.8955969276    -0.1789271058     0.2415442177
Bq         0.7653133502    -0.1347057400     1.1309657489
Bq         0.9100728806    -0.1838405909     0.1427196031
Bq         0.8376931154    -0.1592731655     0.6368426760
Bq         0.8239292963    -0.0544804650     0.7308056858
Bq         0.8528812024    -0.0643074352     0.5331564567
Bq         0.8094533433    -0.0495669799     0.8296303004
Bq         0.8673571554    -0.0692209203     0.4343318421
Bq         0.7949773902    -0.0446534948     0.9284549150
Bq         0.8818331085    -0.0741344053     0.3355072275
Bq         0.7805014372    -0.0397400098     1.0272795296
Bq         0.8963090615    -0.0790478904     0.2366826129
Bq         0.7660254841    -0.0348265247     1.1261041442
Bq         0.9107850146    -0.0839613755     0.1378579983
Bq         0.8384052493    -0.0593939501     0.6319810712
Bq         0.8246414302     0.0453987504     0.7259440811
Bq         0.8535933363     0.0355717802     0.5282948519
Bq         0.8101654772     0.0503122355     0.8247686956
Bq         0.8680692894     0.0306582951     0.4294702373
Bq         0.7956895242     0.0552257205     0.9235933102
Bq         0.8825452424     0.0257448100     0.3306456227
Bq         0.7812135711     0.0601392056     1.0224179248
Bq         0.8970211955     0.0208313250     0.2318210081
Bq         0.7667376181     0.0650526907     1.1212425394
Bq         0.9114971485     0.0159178399     0.1329963935
Bq         0.8391173833     0.0404852653     0.6271194665
Bq         0.8253535642     0.1452779658     0.7210824763
Bq         0.8543054703     0.1354509956     0.5234332471
Bq         0.8108776111     0.1501914508     0.8199070909
Bq         0.8687814233     0.1305375105     0.4246086325
Bq         0.7964016581     0.1551049359     0.9187317055
Bq         0.8832573764     0.1256240254     0.3257840180
Bq         0.7819257051     0.1600184210     1.0175563200
Bq         0.8977333294     0.1207105403     0.2269594034
Bq         0.7674497520     0.1649319061     1.1163809346
Bq         0.9122092825     0.1157970553     0.1281347888
Bq         0.8398295172     0.1403644807     0.6222578617
Bq         0.8260656981     0.2451571811     0.7162208715
Bq         0.8550176042     0.2353302110     0.5185716424
Bq         0.8115897451     0.2500706662     0.8150454861
Bq         0.8694935573     0.2304167259     0.4197470278
Bq         0.7971137920     0.2549841513     0.9138701007
Bq         0.8839695103     0.2255032408     0.3209224132
Bq         0.7826378390     0.2598976364     1.0126947153
Bq         0.8984454634     0.2205897557     0.2220977986
Bq         0.7681618860     0.2648111215     1.1115193299
Bq         0.9129214164     0.2156762706     0.1232731840
Bq         0.8405416512     0.2402436960     0.6173962569
Bq         0.8267778321     0.3450363965     0.7113592668
Bq         0.8557297382     0.3352094263     0.5137100376
Bq         0.8123018790     0.3499498816     0.8101838813
Bq         0.8702056912     0.3302959413     0.4148854230
Bq         0.7978259260     0.3548633667     0.9090084959
Bq         0.8846816442     0.3253824562     0.3160608084
Bq         0.7833499729     0.3597768518     1.0078331105
Bq         0.8991575973     0.3204689711     0.2172361938
Bq         0.7688740199     0.3646903368     1.1066577251
Bq         0.9136335503     0.3155554860     0.1184115792
Bq         0.8412537851     0.3401229114     0.6125346522
Bq         0.8274899660     0.4449156119     0.7064976620
Bq         0.8564418721     0.4350886417     0.5088484328
Bq         0.8130140130     0.4498290970     0.8053222766
Bq         0.8709178251     0.4301751566     0.4100238182
Bq         0.7985380599     0.4547425820     0.9041468912
Bq         0.8853937782     0.4252616716     0.3111992037
Bq         0.7840621069     0.4596560671     1.0029715057
Bq         0.8998697312     0.4203481865     0.2123745891
Bq         0.7695861538     0.4645695522     1.1017961203
Bq         0.9143456843     0.4154347014     0.1135499745
Bq         0.8419659191     0.4400021268     0.6076730474
Bq         0.8282021000     0.5447948273     0.7016360572
Bq         0.8571540060     0.5349678571     0.5039868281
Bq         0.8137261469     0.5497083123     0.8004606718

1
2
3
4
5
6
7
8
9
10
11
12
13
14
15
16
17
18
19
20
21
22
23
24
25
26
27
28
29
30
31
32
33
34
35
36
37
38
39
40
41
42
43
44
45
46
47
48
49
50
51
52
53
54
55
56
57
58
59
60
61
62
63
64
65
66
67
68
69
70
71
72
73
74
75
76
77
78
79
80
81
82
83
84
85
86
87
88
89
90
91
92
93
94
95
96
97
98
99
100
101
102
103
104
105
106
107
108
109
110
111
112
113
114
115
116
117
118
119
120
121
122
123
124
125
126
127
128
129
130
131
132
133
134
135
136
137
138
139
140
141
142
143
144
145
146
147
148
149
150
151
152
153
154
155
156
157
158
159
160
161
162
163
164
165
166
167
168
169
170
171
172
173
174
175
176
177
178
179
180
181
182
183
184
185
186
187
188
189
190
191
192
193
194
195
196
197
198
199
200
201
202
203
204
205
206
207
208
209
210
211
212
213
214
215
216
217
218
219
220
221
222
223
224
225
226
227
228
229
230
231
232
233
234
235
236

