%nproc=8
%mem=1000MB
# rb3lyp/6-311+g** NMR geom=connectivity

Title

0 1
C    -4.0500558   -0.5771862    0.8136712
H    -5.0263804   -1.0082727    1.0024760
C    -3.9381552    0.6617804    0.2400876
H    -4.8252424    1.2338890   -0.0111295
C    -2.6768410    1.2433246    0.0057578
C    -1.4974121    0.5051527    0.2848253
C    -1.6508332   -0.7338728    0.9404026
H    -0.7713646   -1.2730967    1.2633753
C    -2.8898548   -1.2624035    1.1994307
H    -2.9683706   -2.2124563    1.7152676
C    -2.5773185    2.5963696   -0.4192930
H    -3.4870728    3.1412239   -0.6474055
C    -1.3741895    3.2147896   -0.4364030
H    -1.2997315    4.2742019   -0.6578144
C    -0.1719488    2.4994090   -0.1734588
C    -0.2043917    1.1018437    0.0192689
C     1.0513491    3.2042560   -0.0676222
H     1.0427344    4.2819499   -0.1896997
C     2.1942091    2.5487446    0.2579577
H     3.1168527    3.0912848    0.4334727
C     2.2216473    1.1336562    0.2934990
C     1.0486931    0.3945528    0.0302412
C     3.4483363    0.4614633    0.5573939
H     4.3095794    1.0606054    0.8334846
C     3.5427346   -0.8855926    0.4749463
H     4.4731467   -1.3939704    0.7038822
C     2.4490052   -1.6474447   -0.0196319
C     1.2150704   -1.0057258   -0.3013573
C     0.2531113   -1.7434440   -1.0216591
H    -0.6541356   -1.2535051   -1.3462847
C     0.4494193   -3.0628597   -1.3413779
H    -0.3083162   -3.5944309   -1.9054060
C     1.6251726   -3.7207967   -0.9552541
H     1.7670048   -4.7687404   -1.1927019
C     2.6109872   -3.0144177   -0.3183050
H     3.5525612   -3.4902813   -0.0646367
Bq        -0.3344482841    -0.0643074352     0.3592349497
Bq        -0.3778761432    -0.0495669799     0.6557087934
Bq        -0.3199723310    -0.0692209203     0.2604103351
Bq        -0.3923520962    -0.0446534948     0.7545334080
Bq        -0.3054963780    -0.0741344053     0.1615857205
Bq        -0.4068280493    -0.0397400098     0.8533580226
Bq        -0.2910204249    -0.0790478904     0.0627611059
Bq        -0.4213040023    -0.0348265247     0.9521826372
Bq        -0.2765444719    -0.0839613755    -0.0360635087
Bq        -0.3489242371    -0.0593939501     0.4580595643
Bq        -0.3626880562     0.0453987504     0.5520225741
Bq        -0.3337361501     0.0355717802     0.3543733449
Bq        -0.3771640093     0.0503122355     0.6508471887
Bq        -0.3192601971     0.0306582951     0.2555487303
Bq        -0.3916399623     0.0552257205     0.7496718033
Bq        -0.3047842440     0.0257448100     0.1567241158
Bq        -0.4061159153     0.0601392056     0.8484964178
Bq        -0.2903082910     0.0208313250     0.0578995012
Bq        -0.4205918684     0.0650526907     0.9473210324
Bq        -0.2758323379     0.0159178399    -0.0409251134
Bq        -0.3482121032     0.0404852653     0.4531979595
Bq        -0.3619759223     0.1452779658     0.5471609693
Bq        -0.3330240162     0.1354509956     0.3495117402
Bq        -0.3764518753     0.1501914508     0.6459855839
Bq        -0.3185480631     0.1305375105     0.2506871256
Bq        -0.3909278284     0.1551049359     0.7448101985
Bq        -0.3040721101     0.1256240254     0.1518625110
Bq        -0.4054037814     0.1600184210     0.8436348131
Bq        -0.2895961570     0.1207105403     0.0530378964
Bq        -0.4198797344     0.1649319061     0.9424594277
Bq        -0.2751202040     0.1157970553    -0.0457867182
Bq        -0.3474999692     0.1403644807     0.4483363547
Bq        -0.3612637883     0.2451571811     0.5422993646
Bq        -0.3323118822     0.2353302110     0.3446501354
Bq        -0.3757397414     0.2500706662     0.6411239791
Bq        -0.3178359292     0.2304167259     0.2458255208
Bq        -0.3902156944     0.2549841513     0.7399485937
Bq        -0.3033599762     0.2255032408     0.1470009062
Bq        -0.4046916475     0.2598976364     0.8387732083
Bq        -0.2888840231     0.2205897557     0.0481762916
Bq        -0.4191676005     0.2648111215     0.9375978229
Bq        -0.2744080701     0.2156762706    -0.0506483230
Bq        -0.3467878353     0.2402436960     0.4434747500
Bq        -0.3605516544     0.3450363965     0.5374377598
Bq        -0.3315997483     0.3352094263     0.3397885306
Bq        -0.3750276074     0.3499498816     0.6362623744
Bq        -0.3171237953     0.3302959413     0.2409639160
Bq        -0.3895035605     0.3548633667     0.7350869890
Bq        -0.3026478422     0.3253824562     0.1421393015
Bq        -0.4039795135     0.3597768518     0.8339116035
Bq        -0.2881718892     0.3204689711     0.0433146869
Bq        -0.4184554666     0.3646903368     0.9327362181
Bq        -0.2736959361     0.3155554860    -0.0555099277
Bq        -0.3460757013     0.3401229114     0.4386131452
Bq        -0.3598395204     0.4449156119     0.5325761550
Bq        -0.3308876144     0.4350886417     0.3349269259
Bq        -0.3743154735     0.4498290970     0.6314007696
Bq        -0.3164116613     0.4301751566     0.2361023113
Bq        -0.3887914265     0.4547425820     0.7302253842
Bq        -0.3019357083     0.4252616716     0.1372776967
Bq        -0.4032673796     0.4596560671     0.8290499988
Bq        -0.2874597552     0.4203481865     0.0384530821
Bq        -0.4177433326     0.4645695522     0.9278746134
Bq        -0.2729838022     0.4154347014    -0.0603715325
Bq        -0.3453635674     0.4400021268     0.4337515404
Bq        -0.3591273865     0.5447948273     0.5277145503
Bq        -0.3301754804     0.5349678571     0.3300653211
Bq        -0.3736033395     0.5497083123     0.6265391648
Bq        -0.3156995274     0.5300543720     0.2312407065
Bq        -0.3880792926     0.5546217974     0.7253637794
Bq        -0.3012235743     0.5251408869     0.1324160919
Bq        -0.4025552456     0.5595352825     0.8241883940
Bq        -0.2867476213     0.5202274018     0.0335914773
Bq        -0.4170311987     0.5644487676     0.9230130086
Bq        -0.2722716682     0.5153139168    -0.0652331373
Bq        -0.3446514335     0.5398813422     0.4288899357
Bq        -0.3584152526     0.6446740426     0.5228529455
Bq        -0.3294633465     0.6348470725     0.3252037163
Bq        -0.3728912056     0.6495875277     0.6216775601
Bq        -0.3149873934     0.6299335874     0.2263791017
Bq        -0.3873671587     0.6545010128     0.7205021747
Bq        -0.3005114404     0.6250201023     0.1275544872
Bq        -0.4018431117     0.6594144979     0.8193267892
Bq        -0.2860354873     0.6201066172     0.0287298726
Bq        -0.4163190647     0.6643279830     0.9181514038
Bq        -0.2715595343     0.6151931321    -0.0700947420
Bq        -0.3439392995     0.6397605576     0.4240283309
Bq        -0.3577031186     0.7445532580     0.5179913407
Bq        -0.3287512125     0.7347262878     0.3203421116
Bq        -0.3721790717     0.7494667431     0.6168159553
Bq        -0.3142752595     0.7298128028     0.2215174970
Bq        -0.3866550247     0.7543802282     0.7156405699
Bq        -0.2997993064     0.7248993177     0.1226928824
Bq        -0.4011309778     0.7592937133     0.8144651845
Bq        -0.2853233534     0.7199858326     0.0238682678
Bq        -0.4156069308     0.7642071983     0.9132897991
Bq        -0.2708474004     0.7150723475    -0.0749563468
Bq        -0.3432271656     0.7396397729     0.4191667261
Bq        -0.3569909847     0.8444324734     0.5131297360
Bq        -0.3280390786     0.8346055032     0.3154805068
Bq        -0.3714669377     0.8493459585     0.6119543505
Bq        -0.3135631255     0.8296920181     0.2166558922
Bq        -0.3859428908     0.8542594436     0.7107789651
Bq        -0.2990871725     0.8247785331     0.1178312776
Bq        -0.4004188438     0.8591729286     0.8096035797
Bq        -0.2846112195     0.8198650480     0.0190066630
Bq        -0.4148947969     0.8640864137     0.9084281943
Bq        -0.2701352664     0.8149515629    -0.0798179516
Bq        -0.3425150316     0.8395189883     0.4143051214
Bq        -0.3562788507     0.9443116888     0.5082681312
Bq        -0.3273269446     0.9344847186     0.3106189020
Bq        -0.3707548038     0.9492251739     0.6070927458
Bq        -0.3128509916     0.9295712335     0.2117942874
Bq        -0.3852307568     0.9541386589     0.7059173604
Bq        -0.2983750386     0.9246577484     0.1129696729
Bq        -0.3997067099     0.9590521440     0.8047419749
Bq        -0.2838990855     0.9197442634     0.0141450583
Bq        -0.4141826629     0.9639656291     0.9035665895
Bq        -0.2694231325     0.9148307783    -0.0846795563
Bq        -0.3418028977     0.9393982037     0.4094435166
Bq        -0.3555667168     1.0441909041     0.5034065264
Bq        -0.3266148107     1.0343639340     0.3057572973
Bq        -0.3700426698     1.0491043892     0.6022311410
Bq        -0.3121388577     1.0294504489     0.2069326827
Bq        -0.3845186229     1.0540178743     0.7010557556
Bq        -0.2976629046     1.0245369638     0.1081080681
Bq        -0.3989945759     1.0589313594     0.7998803702
Bq        -0.2831869516     1.0196234787     0.0092834535
Bq        -0.4134705290     1.0638448445     0.8987049848
Bq        -0.2687109985     1.0147099936    -0.0895411611
Bq        -0.3410907638     1.0392774191     0.4045819118
Bq        -0.3548545829     1.1440701195     0.4985449217
Bq        -0.3259026768     1.1342431494     0.3008956925
Bq        -0.3693305359     1.1489836046     0.5973695362
Bq        -0.3114267237     1.1293296643     0.2020710779
Bq        -0.3838064889     1.1538970897     0.6961941508
Bq        -0.2969507707     1.1244161792     0.1032464633
Bq        -0.3982824420     1.1588105748     0.7950187654
Bq        -0.2824748176     1.1195026941     0.0044218487
Bq        -0.4127583950     1.1637240599     0.8938433800
Bq        -0.2679988646     1.1145892090    -0.0944027658
Bq        -0.3403786298     1.1391566344     0.3997203071
Bq        -0.3541424489     1.2439493349     0.4936833169
Bq        -0.3251905428     1.2341223647     0.2960340877
Bq        -0.3686184020     1.2488628200     0.5925079315
Bq        -0.3107145898     1.2292088797     0.1972094731
Bq        -0.3830943550     1.2537763051     0.6913325461
Bq        -0.2962386367     1.2242953946     0.0983848586
Bq        -0.3975703080     1.2586897901     0.7901571606
Bq        -0.2817626837     1.2193819095    -0.0004397560
Bq        -0.4120462611     1.2636032752     0.8889817752
Bq        -0.2672867306     1.2144684244    -0.0992643706
Bq        -0.3396664959     1.2390358498     0.3948587023
Bq        -0.3534303150     1.3438285503     0.4888217121
Bq        -0.3244784089     1.3340015801     0.2911724830
Bq        -0.3679062680     1.3487420354     0.5876463267
Bq        -0.3100024558     1.3290880950     0.1923478684
Bq        -0.3823822211     1.3536555204     0.6864709413
Bq        -0.2955265028     1.3241746099     0.0935232538
Bq        -0.3968581741     1.3585690055     0.7852955559
Bq        -0.2810505497     1.3192611249    -0.0053013608
Bq        -0.4113341271     1.3634824906     0.8841201705
Bq        -0.2665745967     1.3143476398    -0.1041259754
Bq        -0.3389543619     1.3389150652     0.3899970975
Bq        -0.3527181810     1.4437077657     0.4839601074
Bq        -0.3237662749     1.4338807955     0.2863108782
Bq        -0.3671941341     1.4486212507     0.5827847219
Bq        -0.3092903219     1.4289673104     0.1874862636
Bq        -0.3816700871     1.4535347358     0.6816093365
Bq        -0.2948143689     1.4240538253     0.0886616490
Bq        -0.3961460402     1.4584482209     0.7804339511
Bq        -0.2803384158     1.4191403402    -0.0101629656
Bq        -0.4106219932     1.4633617060     0.8792585657
Bq        -0.2658624628     1.4142268552    -0.1089875801
Bq        -0.3382422280     1.4387942806     0.3851354928
Bq        -0.3520060471     1.5435869810     0.4790985026
Bq        -0.3230541410     1.5337600109     0.2814492734
Bq        -0.3664820001     1.5485004661     0.5779231172
Bq        -0.3085781880     1.5288465258     0.1826246588
Bq        -0.3809579532     1.5534139512     0.6767477318
Bq        -0.2941022349     1.5239330407     0.0838000443
Bq        -0.3954339062     1.5583274363     0.7755723463
Bq        -0.2796262819     1.5190195556    -0.0150245703
Bq        -0.4099098593     1.5632409214     0.8743969609
Bq        -0.2651503288     1.5141060705    -0.1138491849
Bq        -0.3375300940     1.5386734959     0.3802738880
Bq        -0.3512939131     1.6434661964     0.4742368978
Bq        -0.3223420071     1.6336392262     0.2765876687
Bq        -0.3657698662     1.6483796815     0.5730615124
Bq        -0.3078660540     1.6287257412     0.1777630541
Bq        -0.3802458192     1.6532931666     0.6718861270
Bq        -0.2933901010     1.6238122561     0.0789384395
Bq        -0.3947217723     1.6582066517     0.7707107416
Bq        -0.2789141479     1.6188987710    -0.0198861751
Bq        -0.4091977253     1.6631201367     0.8695353562
Bq        -0.2644381949     1.6139852859    -0.1187107897
Bq        -0.3368179601     1.6385527113     0.3754122832
Bq        -0.3505817792     1.7433454118     0.4693752931
Bq        -0.3216298731     1.7335184416     0.2717260639
Bq        -0.3650577322     1.7482588969     0.5681999076

1
2
3
4
5
6
7
8
9
10
11
12
13
14
15
16
17
18
19
20
21
22
23
24
25
26
27
28
29
30
31
32
33
34
35
36
37
38
39
40
41
42
43
44
45
46
47
48
49
50
51
52
53
54
55
56
57
58
59
60
61
62
63
64
65
66
67
68
69
70
71
72
73
74
75
76
77
78
79
80
81
82
83
84
85
86
87
88
89
90
91
92
93
94
95
96
97
98
99
100
101
102
103
104
105
106
107
108
109
110
111
112
113
114
115
116
117
118
119
120
121
122
123
124
125
126
127
128
129
130
131
132
133
134
135
136
137
138
139
140
141
142
143
144
145
146
147
148
149
150
151
152
153
154
155
156
157
158
159
160
161
162
163
164
165
166
167
168
169
170
171
172
173
174
175
176
177
178
179
180
181
182
183
184
185
186
187
188
189
190
191
192
193
194
195
196
197
198
199
200
201
202
203
204
205
206
207
208
209
210
211
212
213
214
215
216
217
218
219
220
221
222
223
224
225
226
227
228
229
230
231
232
233
234
235
236

