%nproc=8
%mem=1000MB
# rb3lyp/6-311+g** NMR geom=connectivity

Title

0 1
C    -4.0500558   -0.5771862    0.8136712
H    -5.0263804   -1.0082727    1.0024760
C    -3.9381552    0.6617804    0.2400876
H    -4.8252424    1.2338890   -0.0111295
C    -2.6768410    1.2433246    0.0057578
C    -1.4974121    0.5051527    0.2848253
C    -1.6508332   -0.7338728    0.9404026
H    -0.7713646   -1.2730967    1.2633753
C    -2.8898548   -1.2624035    1.1994307
H    -2.9683706   -2.2124563    1.7152676
C    -2.5773185    2.5963696   -0.4192930
H    -3.4870728    3.1412239   -0.6474055
C    -1.3741895    3.2147896   -0.4364030
H    -1.2997315    4.2742019   -0.6578144
C    -0.1719488    2.4994090   -0.1734588
C    -0.2043917    1.1018437    0.0192689
C     1.0513491    3.2042560   -0.0676222
H     1.0427344    4.2819499   -0.1896997
C     2.1942091    2.5487446    0.2579577
H     3.1168527    3.0912848    0.4334727
C     2.2216473    1.1336562    0.2934990
C     1.0486931    0.3945528    0.0302412
C     3.4483363    0.4614633    0.5573939
H     4.3095794    1.0606054    0.8334846
C     3.5427346   -0.8855926    0.4749463
H     4.4731467   -1.3939704    0.7038822
C     2.4490052   -1.6474447   -0.0196319
C     1.2150704   -1.0057258   -0.3013573
C     0.2531113   -1.7434440   -1.0216591
H    -0.6541356   -1.2535051   -1.3462847
C     0.4494193   -3.0628597   -1.3413779
H    -0.3083162   -3.5944309   -1.9054060
C     1.6251726   -3.7207967   -0.9552541
H     1.7670048   -4.7687404   -1.1927019
C     2.6109872   -3.0144177   -0.3183050
H     3.5525612   -3.4902813   -0.0646367
Bq        -3.0144878750     4.4309399027    -0.2153647490
Bq        -3.0068039124     4.3818412680    -0.4090920851
Bq        -3.0183298564     4.4554892201    -0.1185010809
Bq        -3.0029619310     4.3572919506    -0.5059557532
Bq        -3.0221718377     4.4800385375    -0.0216374128
Bq        -2.9991199497     4.3327426332    -0.6028194213
Bq        -3.0260138190     4.5045878549     0.0752262553
Bq        -2.9952779684     4.3081933159    -0.6996830894
Bq        -3.0298558003     4.5291371722     0.1720899234
Bq        -2.9914359870     4.2836439985    -0.7965467575
Bq        -3.0106458937     4.4063905854    -0.3122284171
Bq        -2.9632141544    -0.4160516942     1.0150999863
Bq        -2.9555301918    -0.4651503290     0.8213726501
Bq        -2.9670561357    -0.3915023768     1.1119636543
Bq        -2.9516882104    -0.4896996464     0.7245089820
Bq        -2.9708981171    -0.3669530595     1.2088273224
Bq        -2.9478462291    -0.5142489637     0.6276453139
Bq        -2.9747400984    -0.3424037421     1.3056909905
Bq        -2.9440042478    -0.5387982811     0.5307816458
Bq        -2.9785820797    -0.3178544247     1.4025546586
Bq        -2.9401622664    -0.5633475985     0.4339179777
Bq        -2.9593721731    -0.4406010116     0.9182363182
Bq        -2.9622412002    -0.3191118623     0.9905699568
Bq        -2.9545572375    -0.3682104970     0.7968426206
Bq        -2.9660831815    -0.2945625449     1.0874336249
Bq        -2.9507152562    -0.3927598144     0.6999789526
Bq        -2.9699251628    -0.2700132275     1.1842972930
Bq        -2.9468732749    -0.4173091318     0.6031152845
Bq        -2.9737671442    -0.2454639102     1.2811609611
Bq        -2.9430312935    -0.4418584492     0.5062516164
Bq        -2.9776091255    -0.2209145928     1.3780246292
Bq        -2.9391893122    -0.4664077665     0.4093879483
Bq        -2.9583992189    -0.3436611797     0.8937062887
Bq        -2.9612682460    -0.2221720303     0.9660399274
Bq        -2.9535842833    -0.2712706651     0.7723125912
Bq        -2.9651102273    -0.1976227130     1.0629035955
Bq        -2.9497423020    -0.2958199825     0.6754489231
Bq        -2.9689522086    -0.1730733956     1.1597672636
Bq        -2.9459003206    -0.3203692998     0.5785852550
Bq        -2.9727941900    -0.1485240782     1.2566309317
Bq        -2.9420583393    -0.3449186172     0.4817215870
Bq        -2.9766361713    -0.1239747608     1.3534945998
Bq        -2.9382163580    -0.3694679346     0.3848579189
Bq        -2.9574262646    -0.2467213477     0.8691762593
Bq        -2.9602952917    -0.1252321984     0.9415098980
Bq        -2.9526113291    -0.1743308332     0.7477825618
Bq        -2.9641372731    -0.1006828810     1.0383735661
Bq        -2.9487693478    -0.1988801505     0.6509188937
Bq        -2.9679792544    -0.0761335637     1.1352372342
Bq        -2.9449273664    -0.2234294679     0.5540552256
Bq        -2.9718212357    -0.0515842463     1.2321009022
Bq        -2.9410853851    -0.2479787853     0.4571915575
Bq        -2.9756632171    -0.0270349289     1.3289645703
Bq        -2.9372434038    -0.2725281027     0.3603278894
Bq        -2.9564533104    -0.1497815158     0.8446462299
Bq        -2.9593223375    -0.0282923665     0.9169798685
Bq        -2.9516383749    -0.0773910012     0.7232525324
Bq        -2.9631643188    -0.0037430491     1.0138435366
Bq        -2.9477963935    -0.1019403186     0.6263888643
Bq        -2.9670063002     0.0208062683     1.1107072047
Bq        -2.9439544122    -0.1264896360     0.5295251962
Bq        -2.9708482815     0.0453555857     1.2075708728
Bq        -2.9401124309    -0.1510389533     0.4326615281
Bq        -2.9746902628     0.0699049030     1.3044345409
Bq        -2.9362704495    -0.1755882707     0.3357978600
Bq        -2.9554803562    -0.0528416838     0.8201162005
Bq        -2.9583493833     0.0686474655     0.8924498391
Bq        -2.9506654206     0.0195488307     0.6987225029
Bq        -2.9621913646     0.0931967828     0.9893135072
Bq        -2.9468234393    -0.0050004867     0.6018588349
Bq        -2.9660333459     0.1177461002     1.0861771753
Bq        -2.9429814580    -0.0295498040     0.5049951668
Bq        -2.9698753273     0.1422954176     1.1830408434
Bq        -2.9391394766    -0.0540991214     0.4081314987
Bq        -2.9737173086     0.1668447350     1.2799045115
Bq        -2.9352974953    -0.0786484388     0.3112678306
Bq        -2.9545074020     0.0440981481     0.7955861710
Bq        -2.9573764291     0.1655872974     0.8679198097
Bq        -2.9496924664     0.1164886627     0.6741924735
Bq        -2.9612184104     0.1901366148     0.9647834778
Bq        -2.9458504851     0.0919393453     0.5773288054
Bq        -2.9650603917     0.2146859322     1.0616471459
Bq        -2.9420085037     0.0673900279     0.4804651373
Bq        -2.9689023731     0.2392352495     1.1585108140
Bq        -2.9381665224     0.0428407105     0.3836014692
Bq        -2.9727443544     0.2637845669     1.2553744821
Bq        -2.9343245411     0.0182913932     0.2867378012
Bq        -2.9535344477     0.1410379800     0.7710561416
Bq        -2.9564034748     0.2625271294     0.8433897803
Bq        -2.9487195122     0.2134284946     0.6496624441
Bq        -2.9602454562     0.2870764467     0.9402534484
Bq        -2.9448775309     0.1888791772     0.5527987760
Bq        -2.9640874375     0.3116257641     1.0371171164
Bq        -2.9410355495     0.1643298598     0.4559351079
Bq        -2.9679294188     0.3361750815     1.1339807845
Bq        -2.9371935682     0.1397805425     0.3590714398
Bq        -2.9717714002     0.3607243989     1.2308444526
Bq        -2.9333515869     0.1152312251     0.2622077717
Bq        -2.9525614935     0.2379778120     0.7465261122
Bq        -2.9554305206     0.3594669613     0.8188597508
Bq        -2.9477465580     0.3103683265     0.6251324147
Bq        -2.9592725019     0.3840162787     0.9157234189
Bq        -2.9439045766     0.2858190092     0.5282687466
Bq        -2.9631144833     0.4085655960     1.0125870870
Bq        -2.9400625953     0.2612696918     0.4314050785
Bq        -2.9669564646     0.4331149134     1.1094507551
Bq        -2.9362206140     0.2367203744     0.3345414104
Bq        -2.9707984459     0.4576642308     1.2063144232
Bq        -2.9323786326     0.2121710570     0.2376777423
Bq        -2.9515885393     0.3349176439     0.7219960827
Bq        -2.9544575664     0.4564067932     0.7943297214
Bq        -2.9467736037     0.4073081585     0.6006023852
Bq        -2.9582995477     0.4809561106     0.8911933895
Bq        -2.9429316224     0.3827588411     0.5037387171
Bq        -2.9621415291     0.5055054280     0.9880570576
Bq        -2.9390896411     0.3582095237     0.4068750491
Bq        -2.9659835104     0.5300547454     1.0849207257
Bq        -2.9352476597     0.3336602064     0.3100113810
Bq        -2.9698254917     0.5546040627     1.1817843938
Bq        -2.9314056784     0.3091108890     0.2131477129
Bq        -2.9506155851     0.4318574759     0.6974660533
Bq        -2.9534846122     0.5533466252     0.7697996920
Bq        -2.9458006495     0.5042479904     0.5760723558
Bq        -2.9573265935     0.5778959425     0.8666633601
Bq        -2.9419586682     0.4796986730     0.4792086877
Bq        -2.9611685748     0.6024452599     0.9635270282
Bq        -2.9381166869     0.4551493557     0.3823450196
Bq        -2.9650105562     0.6269945773     1.0603906963
Bq        -2.9342747055     0.4306000383     0.2854813515
Bq        -2.9688525375     0.6515438947     1.1572543643
Bq        -2.9304327242     0.4060507209     0.1886176834
Bq        -2.9496426308     0.5287973078     0.6729360239
Bq        -2.9525116579     0.6502864571     0.7452696626
Bq        -2.9448276953     0.6011878224     0.5515423264
Bq        -2.9563536393     0.6748357745     0.8421333306
Bq        -2.9409857140     0.5766385050     0.4546786583
Bq        -2.9601956206     0.6993850919     0.9389969987
Bq        -2.9371437326     0.5520891876     0.3578149902
Bq        -2.9640376019     0.7239344092     1.0358606668
Bq        -2.9333017513     0.5275398702     0.2609513221
Bq        -2.9678795833     0.7484837266     1.1327243349
Bq        -2.9294597700     0.5029905529     0.1640876540
Bq        -2.9486696766     0.6257371397     0.6484059945
Bq        -2.9515387037     0.7472262890     0.7207396331
Bq        -2.9438547411     0.6981276543     0.5270122970
Bq        -2.9553806850     0.7717756064     0.8176033012
Bq        -2.9400127597     0.6735783369     0.4301486289
Bq        -2.9592226664     0.7963249238     0.9144669693
Bq        -2.9361707784     0.6490290195     0.3332849608
Bq        -2.9630646477     0.8208742412     1.0113306374
Bq        -2.9323287971     0.6244797022     0.2364212927
Bq        -2.9669066290     0.8454235585     1.1081943055
Bq        -2.9284868157     0.5999303848     0.1395576246
Bq        -2.9476967224     0.7226769717     0.6238759650
Bq        -2.9505657495     0.8441661210     0.6962096037
Bq        -2.9428817868     0.7950674862     0.5024822675
Bq        -2.9544077308     0.8687154384     0.7930732718
Bq        -2.9390398055     0.7705181689     0.4056185994
Bq        -2.9582497122     0.8932647557     0.8899369399
Bq        -2.9351978242     0.7459688515     0.3087549313
Bq        -2.9620916935     0.9178140731     0.9868006080
Bq        -2.9313558428     0.7214195341     0.2118912633
Bq        -2.9659336748     0.9423633905     1.0836642761
Bq        -2.9275138615     0.6968702167     0.1150275952
Bq        -2.9467237682     0.8196168036     0.5993459356
Bq        -2.9495927953     0.9411059529     0.6716795743
Bq        -2.9419088326     0.8920073182     0.4779522381
Bq        -2.9534347766     0.9656552703     0.7685432424
Bq        -2.9380668513     0.8674580008     0.3810885700
Bq        -2.9572767579     0.9902045877     0.8654069105
Bq        -2.9342248700     0.8429086834     0.2842249019
Bq        -2.9611187393     1.0147539051     0.9622705785
Bq        -2.9303828886     0.8183593660     0.1873612338
Bq        -2.9649607206     1.0393032224     1.0591342466
Bq        -2.9265409073     0.7938100487     0.0904975657
Bq        -2.9457508139     0.9165566355     0.5748159062
Bq        -2.9486198410     1.0380457849     0.6471495449
Bq        -2.9409358784     0.9889471501     0.4534222087
Bq        -2.9524618224     1.0625951022     0.7440132129
Bq        -2.9370938971     0.9643978327     0.3565585406
Bq        -2.9563038037     1.0871444196     0.8408768810
Bq        -2.9332519157     0.9398485154     0.2596948725
Bq        -2.9601457850     1.1116937370     0.9377405491
Bq        -2.9294099344     0.9152991980     0.1628312044
Bq        -2.9639877664     1.1362430544     1.0346042172
Bq        -2.9255679531     0.8907498806     0.0659675363
Bq        -2.9447778597     1.0134964675     0.5502858768
Bq        -2.9476468868     1.1349856168     0.6226195154
Bq        -2.9399629242     1.0858869821     0.4288921792
Bq        -2.9514888682     1.1595349342     0.7194831835
Bq        -2.9361209428     1.0613376647     0.3320285112
Bq        -2.9553308495     1.1840842516     0.8163468516
Bq        -2.9322789615     1.0367883473     0.2351648431
Bq        -2.9591728308     1.2086335689     0.9132105197
Bq        -2.9284369802     1.0122390299     0.1383011750
Bq        -2.9630148121     1.2331828863     1.0100741878
Bq        -2.9245949988     0.9876897125     0.0414375069
Bq        -2.9438049055     1.1104362994     0.5257558473
Bq        -2.9466739326     1.2319254487     0.5980894860
Bq        -2.9389899699     1.1828268140     0.4043621498

1
2
3
4
5
6
7
8
9
10
11
12
13
14
15
16
17
18
19
20
21
22
23
24
25
26
27
28
29
30
31
32
33
34
35
36
37
38
39
40
41
42
43
44
45
46
47
48
49
50
51
52
53
54
55
56
57
58
59
60
61
62
63
64
65
66
67
68
69
70
71
72
73
74
75
76
77
78
79
80
81
82
83
84
85
86
87
88
89
90
91
92
93
94
95
96
97
98
99
100
101
102
103
104
105
106
107
108
109
110
111
112
113
114
115
116
117
118
119
120
121
122
123
124
125
126
127
128
129
130
131
132
133
134
135
136
137
138
139
140
141
142
143
144
145
146
147
148
149
150
151
152
153
154
155
156
157
158
159
160
161
162
163
164
165
166
167
168
169
170
171
172
173
174
175
176
177
178
179
180
181
182
183
184
185
186
187
188
189
190
191
192
193
194
195
196
197
198
199
200
201
202
203
204
205
206
207
208
209
210
211
212
213
214
215
216
217
218
219
220
221
222
223
224
225
226
227
228
229
230
231
232
233
234
235
236

