%nproc=8
%mem=1000MB
# rb3lyp/6-311+g** NMR geom=connectivity

Title

0 1
C    -4.0500558   -0.5771862    0.8136712
H    -5.0263804   -1.0082727    1.0024760
C    -3.9381552    0.6617804    0.2400876
H    -4.8252424    1.2338890   -0.0111295
C    -2.6768410    1.2433246    0.0057578
C    -1.4974121    0.5051527    0.2848253
C    -1.6508332   -0.7338728    0.9404026
H    -0.7713646   -1.2730967    1.2633753
C    -2.8898548   -1.2624035    1.1994307
H    -2.9683706   -2.2124563    1.7152676
C    -2.5773185    2.5963696   -0.4192930
H    -3.4870728    3.1412239   -0.6474055
C    -1.3741895    3.2147896   -0.4364030
H    -1.2997315    4.2742019   -0.6578144
C    -0.1719488    2.4994090   -0.1734588
C    -0.2043917    1.1018437    0.0192689
C     1.0513491    3.2042560   -0.0676222
H     1.0427344    4.2819499   -0.1896997
C     2.1942091    2.5487446    0.2579577
H     3.1168527    3.0912848    0.4334727
C     2.2216473    1.1336562    0.2934990
C     1.0486931    0.3945528    0.0302412
C     3.4483363    0.4614633    0.5573939
H     4.3095794    1.0606054    0.8334846
C     3.5427346   -0.8855926    0.4749463
H     4.4731467   -1.3939704    0.7038822
C     2.4490052   -1.6474447   -0.0196319
C     1.2150704   -1.0057258   -0.3013573
C     0.2531113   -1.7434440   -1.0216591
H    -0.6541356   -1.2535051   -1.3462847
C     0.4494193   -3.0628597   -1.3413779
H    -0.3083162   -3.5944309   -1.9054060
C     1.6251726   -3.7207967   -0.9552541
H     1.7670048   -4.7687404   -1.1927019
C     2.6109872   -3.0144177   -0.3183050
H     3.5525612   -3.4902813   -0.0646367
Bq        -0.5347388672     4.2383176764     0.3447616083
Bq        -0.4963190539     3.9928245027    -0.6238750726
Bq        -0.5155289605     4.1155710895    -0.1395567322
Bq        -0.5183979876     4.2370602389    -0.0672230935
Bq        -0.5107140250     4.1879616041    -0.2609504297
Bq        -0.5222399690     4.2616095562     0.0296405746
Bq        -0.5068720437     4.1634122867    -0.3578140978
Bq        -0.5260819503     4.2861588736     0.1265042427
Bq        -0.5030300623     4.1388629694    -0.4546777659
Bq        -0.5299239316     4.3107081910     0.2233679108
Bq        -0.4991880810     4.1143136520    -0.5515414340
Bq        -0.5337659130     4.3352575084     0.3202315789
Bq        -0.4953460997     4.0897643346    -0.6484051020
Bq        -0.5145560063     4.2125109215    -0.1640867616
Bq        -0.5174250334     4.3340000708    -0.0917531229
Bq        -0.5097410708     4.2849014360    -0.2854804591
Bq        -0.5212670148     4.3585493882     0.0051105452
Bq        -0.5058990894     4.2603521187    -0.3823441272
Bq        -0.5251089961     4.3830987055     0.1019742132
Bq        -0.5020571081     4.2358028013    -0.4792077953
Bq        -0.5289509774     4.4076480229     0.1988378813
Bq        -0.4982151268     4.2112534839    -0.5760714634
Bq        -0.5327929587     4.4321973403     0.2957015494
Bq        -0.4943731455     4.1867041665    -0.6729351315
Bq        -0.5135830521     4.3094507534    -0.1886167910
Bq        -0.5164520792     4.4309399027    -0.1162831524
Bq        -0.5087681165     4.3818412680    -0.3100104885
Bq        -0.5202940605     4.4554892201    -0.0194194843
Bq        -0.5049261352     4.3572919506    -0.4068741566
Bq        -0.5241360419     4.4800385375     0.0774441838
Bq        -0.5010841539     4.3327426332    -0.5037378247
Bq        -0.5279780232     4.5045878549     0.1743078519
Bq        -0.4972421726     4.3081933159    -0.6006014928
Bq        -0.5318200045     4.5291371722     0.2711715200
Bq        -0.4934001912     4.2836439985    -0.6974651609
Bq        -0.5126100979     4.4063905854    -0.2131468205
Bq        -0.4651783586    -0.4160516942     1.1141815829
Bq        -0.4574943959    -0.4651503290     0.9204542467
Bq        -0.4690203399    -0.3915023768     1.2110452509
Bq        -0.4536524146    -0.4896996464     0.8235905786
Bq        -0.4728623212    -0.3669530595     1.3079089190
Bq        -0.4498104333    -0.5142489637     0.7267269105
Bq        -0.4767043026    -0.3424037421     1.4047725871
Bq        -0.4459684519    -0.5387982811     0.6298632424
Bq        -0.4805462839    -0.3178544247     1.5016362552
Bq        -0.4421264706    -0.5633475985     0.5329995743
Bq        -0.4613363773    -0.4406010116     1.0173179148
Bq        -0.4642054044    -0.3191118623     1.0896515534
Bq        -0.4565214417    -0.3682104970     0.8959242173
Bq        -0.4680473857    -0.2945625449     1.1865152215
Bq        -0.4526794604    -0.3927598144     0.7990605492
Bq        -0.4718893670    -0.2700132275     1.2833788896
Bq        -0.4488374790    -0.4173091318     0.7021968811
Bq        -0.4757313484    -0.2454639102     1.3802425577
Bq        -0.4449954977    -0.4418584492     0.6053332130
Bq        -0.4795733297    -0.2209145928     1.4771062258
Bq        -0.4411535164    -0.4664077665     0.5084695449
Bq        -0.4603634230    -0.3436611797     0.9927878853
Bq        -0.4632324501    -0.2221720303     1.0651215240
Bq        -0.4555484875    -0.2712706651     0.8713941878
Bq        -0.4670744315    -0.1976227130     1.1619851921
Bq        -0.4517065062    -0.2958199825     0.7745305197
Bq        -0.4709164128    -0.1730733956     1.2588488602
Bq        -0.4478645248    -0.3203692998     0.6776668516
Bq        -0.4747583941    -0.1485240782     1.3557125283
Bq        -0.4440225435    -0.3449186172     0.5808031836
Bq        -0.4786003755    -0.1239747608     1.4525761964
Bq        -0.4401805622    -0.3694679346     0.4839395155
Bq        -0.4593904688    -0.2467213477     0.9682578559
Bq        -0.4622594959    -0.1252321984     1.0405914946
Bq        -0.4545755333    -0.1743308332     0.8468641584
Bq        -0.4661014772    -0.1006828810     1.1374551627
Bq        -0.4507335519    -0.1988801505     0.7500004903
Bq        -0.4699434586    -0.0761335637     1.2343188308
Bq        -0.4468915706    -0.2234294679     0.6531368222
Bq        -0.4737854399    -0.0515842463     1.3311824988
Bq        -0.4430495893    -0.2479787853     0.5562731541
Bq        -0.4776274212    -0.0270349289     1.4280461669
Bq        -0.4392076079    -0.2725281027     0.4594094860
Bq        -0.4584175146    -0.1497815158     0.9437278265
Bq        -0.4612865417    -0.0282923665     1.0160614652
Bq        -0.4536025790    -0.0773910012     0.8223341290
Bq        -0.4651285230    -0.0037430491     1.1129251332
Bq        -0.4497605977    -0.1019403186     0.7254704609
Bq        -0.4689705044     0.0208062683     1.2097888013
Bq        -0.4459186164    -0.1264896360     0.6286067928
Bq        -0.4728124857     0.0453555857     1.3066524694
Bq        -0.4420766350    -0.1510389533     0.5317431247
Bq        -0.4766544670     0.0699049030     1.4035161375
Bq        -0.4382346537    -0.1755882707     0.4348794566
Bq        -0.4574445604    -0.0528416838     0.9191977971
Bq        -0.4603135875     0.0686474655     0.9915314357
Bq        -0.4526296248     0.0195488307     0.7978040995
Bq        -0.4641555688     0.0931967828     1.0883951038
Bq        -0.4487876435    -0.0050004867     0.7009404315
Bq        -0.4679975501     0.1177461002     1.1852587719
Bq        -0.4449456622    -0.0295498040     0.6040767634
Bq        -0.4718395315     0.1422954176     1.2821224400
Bq        -0.4411036808    -0.0540991214     0.5072130953
Bq        -0.4756815128     0.1668447350     1.3789861081
Bq        -0.4372616995    -0.0786484388     0.4103494272
Bq        -0.4564716061     0.0440981481     0.8946677676
Bq        -0.4593406332     0.1655872974     0.9670014063
Bq        -0.4516566706     0.1164886627     0.7732740701
Bq        -0.4631826146     0.1901366148     1.0638650744
Bq        -0.4478146893     0.0919393453     0.6764104020
Bq        -0.4670245959     0.2146859322     1.1607287425
Bq        -0.4439727079     0.0673900279     0.5795467339
Bq        -0.4708665772     0.2392352495     1.2575924106
Bq        -0.4401307266     0.0428407105     0.4826830658
Bq        -0.4747085586     0.2637845669     1.3544560787
Bq        -0.4362887453     0.0182913932     0.3858193978
Bq        -0.4554986519     0.1410379800     0.8701377382
Bq        -0.4583676790     0.2625271294     0.9424713769
Bq        -0.4506837164     0.2134284946     0.7487440407
Bq        -0.4622096603     0.2870764467     1.0393350450
Bq        -0.4468417350     0.1888791772     0.6518803726
Bq        -0.4660516417     0.3116257641     1.1361987130
Bq        -0.4429997537     0.1643298598     0.5550167045
Bq        -0.4698936230     0.3361750815     1.2330623811
Bq        -0.4391577724     0.1397805425     0.4581530364
Bq        -0.4737356043     0.3607243989     1.3299260492
Bq        -0.4353157910     0.1152312251     0.3612893683
Bq        -0.4545256977     0.2379778120     0.8456077088
Bq        -0.4573947248     0.3594669613     0.9179413474
Bq        -0.4497107621     0.3103683265     0.7242140113
Bq        -0.4612367061     0.3840162787     1.0148050155
Bq        -0.4458687808     0.2858190092     0.6273503432
Bq        -0.4650786875     0.4085655960     1.1116686836
Bq        -0.4420267995     0.2612696918     0.5304866751
Bq        -0.4689206688     0.4331149134     1.2085323517
Bq        -0.4381848181     0.2367203744     0.4336230070
Bq        -0.4727626501     0.4576642308     1.3053960198
Bq        -0.4343428368     0.2121710570     0.3367593389
Bq        -0.4535527435     0.3349176439     0.8210776794
Bq        -0.4564217706     0.4564067932     0.8934113180
Bq        -0.4487378079     0.4073081585     0.6996839818
Bq        -0.4602637519     0.4809561106     0.9902749861
Bq        -0.4448958266     0.3827588411     0.6028203137
Bq        -0.4641057332     0.5055054280     1.0871386542
Bq        -0.4410538453     0.3582095237     0.5059566457
Bq        -0.4679477146     0.5300547454     1.1840023223
Bq        -0.4372118639     0.3336602064     0.4090929776
Bq        -0.4717896959     0.5546040627     1.2808659904
Bq        -0.4333698826     0.3091108890     0.3122293095
Bq        -0.4525797892     0.4318574759     0.7965476499
Bq        -0.4554488163     0.5533466252     0.8688812886
Bq        -0.4477648537     0.5042479904     0.6751539524
Bq        -0.4592907977     0.5778959425     0.9657449567
Bq        -0.4439228724     0.4796986730     0.5782902843
Bq        -0.4631327790     0.6024452599     1.0626086248
Bq        -0.4400808910     0.4551493557     0.4814266162
Bq        -0.4669747603     0.6269945773     1.1594722929
Bq        -0.4362389097     0.4306000383     0.3845629481
Bq        -0.4708167417     0.6515438947     1.2563359609
Bq        -0.4323969284     0.4060507209     0.2876992800
Bq        -0.4516068350     0.5287973078     0.7720176205
Bq        -0.4544758621     0.6502864571     0.8443512592
Bq        -0.4467918995     0.6011878224     0.6506239230
Bq        -0.4583178435     0.6748357745     0.9412149273
Bq        -0.4429499181     0.5766385050     0.5537602549
Bq        -0.4621598248     0.6993850919     1.0380785953
Bq        -0.4391079368     0.5520891876     0.4568965868
Bq        -0.4660018061     0.7239344092     1.1349422634
Bq        -0.4352659555     0.5275398702     0.3600329187
Bq        -0.4698437874     0.7484837266     1.2318059315
Bq        -0.4314239741     0.5029905529     0.2631692506
Bq        -0.4506338808     0.6257371397     0.7474875911
Bq        -0.4535029079     0.7472262890     0.8198212297
Bq        -0.4458189452     0.6981276543     0.6260938936
Bq        -0.4573448892     0.7717756064     0.9166848978
Bq        -0.4419769639     0.6735783369     0.5292302255
Bq        -0.4611868706     0.7963249238     1.0135485659
Bq        -0.4381349826     0.6490290195     0.4323665574
Bq        -0.4650288519     0.8208742412     1.1104122340
Bq        -0.4342930013     0.6244797022     0.3355028893
Bq        -0.4688708332     0.8454235585     1.2072759021
Bq        -0.4304510199     0.5999303848     0.2386392212
Bq        -0.4496609266     0.7226769717     0.7229575616
Bq        -0.4525299537     0.8441661210     0.7952912003
Bq        -0.4448459910     0.7950674862     0.6015638641
Bq        -0.4563719350     0.8687154384     0.8921548684
Bq        -0.4410040097     0.7705181689     0.5047001960
Bq        -0.4602139163     0.8932647557     0.9890185365
Bq        -0.4371620284     0.7459688515     0.4078365279
Bq        -0.4640558977     0.9178140731     1.0858822046
Bq        -0.4333200470     0.7214195341     0.3109728599
Bq        -0.4678978790     0.9423633905     1.1827458727
Bq        -0.4294780657     0.6968702167     0.2141091918
Bq        -0.4486879723     0.8196168036     0.6984275322
Bq        -0.4515569994     0.9411059529     0.7707611709
Bq        -0.4438730368     0.8920073182     0.5770338347
Bq        -0.4553989808     0.9656552703     0.8676248390
Bq        -0.4400310555     0.8674580008     0.4801701666
Bq        -0.4592409621     0.9902045877     0.9644885071
Bq        -0.4361890741     0.8429086834     0.3833064985
Bq        -0.4630829434     1.0147539051     1.0613521751
Bq        -0.4323470928     0.8183593660     0.2864428304
Bq        -0.4669249248     1.0393032224     1.1582158432
Bq        -0.4285051115     0.7938100487     0.1895791623

1
2
3
4
5
6
7
8
9
10
11
12
13
14
15
16
17
18
19
20
21
22
23
24
25
26
27
28
29
30
31
32
33
34
35
36
37
38
39
40
41
42
43
44
45
46
47
48
49
50
51
52
53
54
55
56
57
58
59
60
61
62
63
64
65
66
67
68
69
70
71
72
73
74
75
76
77
78
79
80
81
82
83
84
85
86
87
88
89
90
91
92
93
94
95
96
97
98
99
100
101
102
103
104
105
106
107
108
109
110
111
112
113
114
115
116
117
118
119
120
121
122
123
124
125
126
127
128
129
130
131
132
133
134
135
136
137
138
139
140
141
142
143
144
145
146
147
148
149
150
151
152
153
154
155
156
157
158
159
160
161
162
163
164
165
166
167
168
169
170
171
172
173
174
175
176
177
178
179
180
181
182
183
184
185
186
187
188
189
190
191
192
193
194
195
196
197
198
199
200
201
202
203
204
205
206
207
208
209
210
211
212
213
214
215
216
217
218
219
220
221
222
223
224
225
226
227
228
229
230
231
232
233
234
235
236

