%nproc=8
%mem=1000MB
# rb3lyp/6-311+g** NMR geom=connectivity

Title

0 1
C    -4.0500558   -0.5771862    0.8136712
H    -5.0263804   -1.0082727    1.0024760
C    -3.9381552    0.6617804    0.2400876
H    -4.8252424    1.2338890   -0.0111295
C    -2.6768410    1.2433246    0.0057578
C    -1.4974121    0.5051527    0.2848253
C    -1.6508332   -0.7338728    0.9404026
H    -0.7713646   -1.2730967    1.2633753
C    -2.8898548   -1.2624035    1.1994307
H    -2.9683706   -2.2124563    1.7152676
C    -2.5773185    2.5963696   -0.4192930
H    -3.4870728    3.1412239   -0.6474055
C    -1.3741895    3.2147896   -0.4364030
H    -1.2997315    4.2742019   -0.6578144
C    -0.1719488    2.4994090   -0.1734588
C    -0.2043917    1.1018437    0.0192689
C     1.0513491    3.2042560   -0.0676222
H     1.0427344    4.2819499   -0.1896997
C     2.1942091    2.5487446    0.2579577
H     3.1168527    3.0912848    0.4334727
C     2.2216473    1.1336562    0.2934990
C     1.0486931    0.3945528    0.0302412
C     3.4483363    0.4614633    0.5573939
H     4.3095794    1.0606054    0.8334846
C     3.5427346   -0.8855926    0.4749463
H     4.4731467   -1.3939704    0.7038822
C     2.4490052   -1.6474447   -0.0196319
C     1.2150704   -1.0057258   -0.3013573
C     0.2531113   -1.7434440   -1.0216591
H    -0.6541356   -1.2535051   -1.3462847
C     0.4494193   -3.0628597   -1.3413779
H    -0.3083162   -3.5944309   -1.9054060
C     1.6251726   -3.7207967   -0.9552541
H     1.7670048   -4.7687404   -1.1927019
C     2.6109872   -3.0144177   -0.3183050
H     3.5525612   -3.4902813   -0.0646367
Bq        -3.9823838071     2.1247747481     0.2031527990
Bq        -3.9816758160     2.0378093141     0.0230514052
Bq        -3.9827378027     2.1682574651     0.2932034959
Bq        -3.9813218204     1.9943265971    -0.0669992917
Bq        -3.9830917983     2.2117401821     0.3832541927
Bq        -3.9809678248     1.9508438801    -0.1570499886
Bq        -3.9834457939     2.2552228991     0.4733048896
Bq        -3.9806138293     1.9073611631    -0.2471006854
Bq        -3.9837997894     2.2987056161     0.5633555865
Bq        -3.9802598337     1.8638784461    -0.3371513823
Bq        -3.9820298116     2.0812920311     0.1131021021
Bq        -3.9822128749     2.2148261408     0.1596704179
Bq        -3.9815048837     2.1278607068    -0.0204309758
Bq        -3.9825668704     2.2583088578     0.2497211148
Bq        -3.9811508881     2.0843779898    -0.1104816727
Bq        -3.9829208660     2.3017915748     0.3397718117
Bq        -3.9807968926     2.0408952728    -0.2005323696
Bq        -3.9832748616     2.3452742918     0.4298225086
Bq        -3.9804428970     1.9974125558    -0.2905830665
Bq        -3.9836288572     2.3887570088     0.5198732055
Bq        -3.9800889014     1.9539298388    -0.3806337634
Bq        -3.9818588793     2.1713434238     0.0696197211
Bq        -3.9820419426     2.3048775334     0.1161880369
Bq        -3.9813339514     2.2179120994    -0.0639133569
Bq        -3.9823959382     2.3483602505     0.2062387338
Bq        -3.9809799559     2.1744293824    -0.1539640537
Bq        -3.9827499337     2.3918429675     0.2962894307
Bq        -3.9806259603     2.1309466654    -0.2440147506
Bq        -3.9831039293     2.4353256845     0.3863401276
Bq        -3.9802719647     2.0874639484    -0.3340654475
Bq        -3.9834579249     2.4788084015     0.4763908244
Bq        -3.9799179691     2.0439812314    -0.4241161444
Bq        -3.9816879470     2.2613948164     0.0261373400
Bq        -3.9818710103     2.3949289261     0.0727056559
Bq        -3.9811630192     2.3079634921    -0.1073957379
Bq        -3.9822250059     2.4384116431     0.1627563528
Bq        -3.9808090236     2.2644807751    -0.1974464348
Bq        -3.9825790015     2.4818943601     0.2528070496
Bq        -3.9804550280     2.2209980581    -0.2874971317
Bq        -3.9829329970     2.5253770771     0.3428577465
Bq        -3.9801010324     2.1775153411    -0.3775478285
Bq        -3.9832869926     2.5688597941     0.4329084434
Bq        -3.9797470369     2.1340326241    -0.4675985254
Bq        -3.9815170147     2.3514462091    -0.0173450410
Bq        -3.9817000780     2.4849803188     0.0292232748
Bq        -3.9809920869     2.3980148848    -0.1508781189
Bq        -3.9820540736     2.5284630358     0.1192739717
Bq        -3.9806380913     2.3545321678    -0.2409288158
Bq        -3.9824080692     2.5719457528     0.2093246686
Bq        -3.9802840957     2.3110494508    -0.3309795127
Bq        -3.9827620648     2.6154284698     0.2993753655
Bq        -3.9799301002     2.2675667338    -0.4210302096
Bq        -3.9831160603     2.6589111868     0.3894260624
Bq        -3.9795761046     2.2240840168    -0.5110809065
Bq        -3.9813460825     2.4414976018    -0.0608274220
Bq        -3.8902474644    -2.0175893147     2.2037354304
Bq        -3.8895394733    -2.1045547487     2.0236340366
Bq        -3.8906014600    -1.9741065977     2.2937861273
Bq        -3.8891854777    -2.1480374658     1.9335833398
Bq        -3.8909554556    -1.9306238807     2.3838368242
Bq        -3.8888314821    -2.1915201828     1.8435326429
Bq        -3.8913094512    -1.8871411637     2.4738875211
Bq        -3.8884774866    -2.2350028998     1.7534819460
Bq        -3.8916634467    -1.8436584467     2.5639382179
Bq        -3.8881234910    -2.2784856168     1.6634312491
Bq        -3.8898934689    -2.0610720317     2.1136847335
Bq        -3.8900765322    -1.9275379221     2.1602530494
Bq        -3.8893685410    -2.0145033561     1.9801516556
Bq        -3.8904305277    -1.8840552051     2.2503037463
Bq        -3.8890145454    -2.0579860731     1.8901009587
Bq        -3.8907845233    -1.8405724881     2.3403544431
Bq        -3.8886605499    -2.1014687901     1.8000502618
Bq        -3.8911385189    -1.7970897711     2.4304051400
Bq        -3.8883065543    -2.1449515071     1.7099995650
Bq        -3.8914925145    -1.7536070540     2.5204558369
Bq        -3.8879525587    -2.1884342241     1.6199488681
Bq        -3.8897225366    -1.9710206391     2.0702023525
Bq        -3.8899055999    -1.8374865294     2.1167706683
Bq        -3.8891976087    -1.9244519634     1.9366692746
Bq        -3.8902595955    -1.7940038124     2.2068213652
Bq        -3.8888436132    -1.9679346804     1.8466185777
Bq        -3.8906135910    -1.7505210954     2.2968720621
Bq        -3.8884896176    -2.0114173974     1.7565678808
Bq        -3.8909675866    -1.7070383784     2.3869227590
Bq        -3.8881356220    -2.0549001144     1.6665171839
Bq        -3.8913215822    -1.6635556614     2.4769734559
Bq        -3.8877816264    -2.0983828314     1.5764664870
Bq        -3.8895516043    -1.8809692464     2.0267199715
Bq        -3.8897346676    -1.7474351367     2.0732882873
Bq        -3.8890266765    -1.8344005707     1.8931868935
Bq        -3.8900886632    -1.7039524197     2.1633389842
Bq        -3.8886726809    -1.8778832877     1.8031361967
Bq        -3.8904426588    -1.6604697027     2.2533896811
Bq        -3.8883186853    -1.9213660047     1.7130854998
Bq        -3.8907966543    -1.6169869857     2.3434403780
Bq        -3.8879646897    -1.9648487217     1.6230348029
Bq        -3.8911506499    -1.5735042687     2.4334910748
Bq        -3.8876106942    -2.0083314388     1.5329841060
Bq        -3.8893806720    -1.7909178537     1.9832375904
Bq        -3.8895637353    -1.6573837441     2.0298059063
Bq        -3.8888557442    -1.7443491781     1.8497045125
Bq        -3.8899177309    -1.6139010270     2.1198566032
Bq        -3.8885017486    -1.7878318951     1.7596538156
Bq        -3.8902717265    -1.5704183100     2.2099073000
Bq        -3.8881477530    -1.8313146121     1.6696031187
Bq        -3.8906257221    -1.5269355930     2.2999579969
Bq        -3.8877937575    -1.8747973291     1.5795524219
Bq        -3.8909797176    -1.4834528760     2.3900086938
Bq        -3.8874397619    -1.9182800461     1.4895017250
Bq        -3.8892097398    -1.7008664611     1.9397552094
Bq        -3.8893928031    -1.5673323514     1.9863235252
Bq        -3.8886848119    -1.6542977854     1.8062221315
Bq        -3.8897467986    -1.5238496344     2.0763742221
Bq        -3.8883308163    -1.6977805024     1.7161714346
Bq        -3.8901007942    -1.4803669174     2.1664249190
Bq        -3.8879768208    -1.7412632194     1.6261207377
Bq        -3.8904547898    -1.4368842004     2.2564756159
Bq        -3.8876228252    -1.7847459364     1.5360700408
Bq        -3.8908087854    -1.3934014834     2.3465263128
Bq        -3.8872688296    -1.8282286534     1.4460193440
Bq        -3.8890388075    -1.6108150684     1.8962728284
Bq        -3.8892218708    -1.4772809587     1.9428411442
Bq        -3.8885138796    -1.5642463927     1.7627397504
Bq        -3.8895758664    -1.4337982417     2.0328918411
Bq        -3.8881598841    -1.6077291097     1.6726890536
Bq        -3.8899298619    -1.3903155247     2.1229425380
Bq        -3.8878058885    -1.6512118267     1.5826383567
Bq        -3.8902838575    -1.3468328077     2.2129932349
Bq        -3.8874518929    -1.6946945437     1.4925876598
Bq        -3.8906378531    -1.3033500907     2.3030439317
Bq        -3.8870978973    -1.7381772607     1.4025369629
Bq        -3.8888678752    -1.5207636757     1.8527904473
Bq        -3.8890509385    -1.3872295660     1.8993587632
Bq        -3.8883429474    -1.4741950001     1.7192573694
Bq        -3.8894049341    -1.3437468490     1.9894094601
Bq        -3.8879889518    -1.5176777171     1.6292066725
Bq        -3.8897589297    -1.3002641320     2.0794601569
Bq        -3.8876349562    -1.5611604341     1.5391559757
Bq        -3.8901129252    -1.2567814150     2.1695108538
Bq        -3.8872809606    -1.6046431511     1.4491052788
Bq        -3.8904669208    -1.2132986980     2.2595615507
Bq        -3.8869269651    -1.6481258681     1.3590545819
Bq        -3.8886969429    -1.4307122830     1.8093080663
Bq        -3.8888800062    -1.2971781734     1.8558763821
Bq        -3.8881720151    -1.3841436074     1.6757749884
Bq        -3.8892340018    -1.2536954564     1.9459270790
Bq        -3.8878180195    -1.4276263244     1.5857242915
Bq        -3.8895879974    -1.2102127394     2.0359777759
Bq        -3.8874640239    -1.4711090414     1.4956735946
Bq        -3.8899419930    -1.1667300224     2.1260284728
Bq        -3.8871100284    -1.5145917584     1.4056228977
Bq        -3.8902959885    -1.1232473054     2.2160791697
Bq        -3.8867560328    -1.5580744754     1.3155722009
Bq        -3.8885260107    -1.3406608904     1.7658256853
Bq        -3.8887090740    -1.2071267807     1.8123940011
Bq        -3.8880010828    -1.2940922147     1.6322926074
Bq        -3.8890630695    -1.1636440637     1.9024446980
Bq        -3.8876470872    -1.3375749317     1.5422419105
Bq        -3.8894170651    -1.1201613467     1.9924953949
Bq        -3.8872930917    -1.3810576487     1.4521912136
Bq        -3.8897710607    -1.0766786297     2.0825460918
Bq        -3.8869390961    -1.4245403657     1.3621405167
Bq        -3.8901250563    -1.0331959127     2.1725967886
Bq        -3.8865851005    -1.4680230827     1.2720898198
Bq        -3.8883550784    -1.2506094977     1.7223433042
Bq        -3.8885381417    -1.1170753880     1.7689116201
Bq        -3.8878301505    -1.2040408220     1.5888102263
Bq        -3.8888921373    -1.0735926710     1.8589623170
Bq        -3.8874761550    -1.2475235390     1.4987595294
Bq        -3.8892461328    -1.0301099540     1.9490130139
Bq        -3.8871221594    -1.2910062560     1.4087088326
Bq        -3.8896001284    -0.9866272370     2.0390637107
Bq        -3.8867681638    -1.3344889731     1.3186581357
Bq        -3.8899541240    -0.9431445200     2.1291144076
Bq        -3.8864141682    -1.3779716901     1.2286074388
Bq        -3.8881841461    -1.1605581050     1.6788609232
Bq        -3.8883672094    -1.0270239954     1.7254292391
Bq        -3.8876592183    -1.1139894294     1.5453278453
Bq        -3.8887212050    -0.9835412784     1.8154799359
Bq        -3.8873052227    -1.1574721464     1.4552771484
Bq        -3.8890752006    -0.9400585614     1.9055306328
Bq        -3.8869512271    -1.2009548634     1.3652264515
Bq        -3.8894291961    -0.8965758443     1.9955813297
Bq        -3.8865972315    -1.2444375804     1.2751757546
Bq        -3.8897831917    -0.8530931273     2.0856320266
Bq        -3.8862432360    -1.2879202974     1.1851250578
Bq        -3.8880132138    -1.0705067124     1.6353785422
Bq        -3.8881962771    -0.9369726027     1.6819468580
Bq        -3.8874882860    -1.0239380367     1.5018454643
Bq        -3.8885502727    -0.8934898857     1.7719975549
Bq        -3.8871342904    -1.0674207537     1.4117947674
Bq        -3.8889042683    -0.8500071687     1.8620482518
Bq        -3.8867802948    -1.1109034707     1.3217440705
Bq        -3.8892582639    -0.8065244517     1.9520989487
Bq        -3.8864262993    -1.1543861877     1.2316933736
Bq        -3.8896122594    -0.7630417347     2.0421496456
Bq        -3.8860723037    -1.1978689047     1.1416426767
Bq        -3.8878422816    -0.9804553197     1.5918961611
Bq        -3.8880253449    -0.8469212100     1.6384644770
Bq        -3.8873173537    -0.9338866440     1.4583630832

1
2
3
4
5
6
7
8
9
10
11
12
13
14
15
16
17
18
19
20
21
22
23
24
25
26
27
28
29
30
31
32
33
34
35
36
37
38
39
40
41
42
43
44
45
46
47
48
49
50
51
52
53
54
55
56
57
58
59
60
61
62
63
64
65
66
67
68
69
70
71
72
73
74
75
76
77
78
79
80
81
82
83
84
85
86
87
88
89
90
91
92
93
94
95
96
97
98
99
100
101
102
103
104
105
106
107
108
109
110
111
112
113
114
115
116
117
118
119
120
121
122
123
124
125
126
127
128
129
130
131
132
133
134
135
136
137
138
139
140
141
142
143
144
145
146
147
148
149
150
151
152
153
154
155
156
157
158
159
160
161
162
163
164
165
166
167
168
169
170
171
172
173
174
175
176
177
178
179
180
181
182
183
184
185
186
187
188
189
190
191
192
193
194
195
196
197
198
199
200
201
202
203
204
205
206
207
208
209
210
211
212
213
214
215
216
217
218
219
220
221
222
223
224
225
226
227
228
229
230
231
232
233
234
235
236

