%nproc=8
%mem=1000MB
# rb3lyp/6-311+g** NMR geom=connectivity

Title

0 1
C    -4.0500558   -0.5771862    0.8136712
H    -5.0263804   -1.0082727    1.0024760
C    -3.9381552    0.6617804    0.2400876
H    -4.8252424    1.2338890   -0.0111295
C    -2.6768410    1.2433246    0.0057578
C    -1.4974121    0.5051527    0.2848253
C    -1.6508332   -0.7338728    0.9404026
H    -0.7713646   -1.2730967    1.2633753
C    -2.8898548   -1.2624035    1.1994307
H    -2.9683706   -2.2124563    1.7152676
C    -2.5773185    2.5963696   -0.4192930
H    -3.4870728    3.1412239   -0.6474055
C    -1.3741895    3.2147896   -0.4364030
H    -1.2997315    4.2742019   -0.6578144
C    -0.1719488    2.4994090   -0.1734588
C    -0.2043917    1.1018437    0.0192689
C     1.0513491    3.2042560   -0.0676222
H     1.0427344    4.2819499   -0.1896997
C     2.1942091    2.5487446    0.2579577
H     3.1168527    3.0912848    0.4334727
C     2.2216473    1.1336562    0.2934990
C     1.0486931    0.3945528    0.0302412
C     3.4483363    0.4614633    0.5573939
H     4.3095794    1.0606054    0.8334846
C     3.5427346   -0.8855926    0.4749463
H     4.4731467   -1.3939704    0.7038822
C     2.4490052   -1.6474447   -0.0196319
C     1.2150704   -1.0057258   -0.3013573
C     0.2531113   -1.7434440   -1.0216591
H    -0.6541356   -1.2535051   -1.3462847
C     0.4494193   -3.0628597   -1.3413779
H    -0.3083162   -3.5944309   -1.9054060
C     1.6251726   -3.7207967   -0.9552541
H     1.7670048   -4.7687404   -1.1927019
C     2.6109872   -3.0144177   -0.3183050
H     3.5525612   -3.4902813   -0.0646367
Bq        -0.5086207089    -0.4392568713     0.8583109828
Bq        -0.3928130846    -0.4785647519     0.0677140661
Bq        -0.5230966620    -0.4343433862     0.9571355973
Bq        -0.3783371315    -0.4834782370    -0.0311105485
Bq        -0.4507168967    -0.4589108116     0.4630125244
Bq        -0.4644807159    -0.3541181111     0.5569755342
Bq        -0.4355288098    -0.3639450813     0.3593263051
Bq        -0.4789566689    -0.3492046261     0.6558001488
Bq        -0.4210528567    -0.3688585664     0.2605016905
Bq        -0.4934326219    -0.3442911410     0.7546247634
Bq        -0.4065769037    -0.3737720515     0.1616770759
Bq        -0.5079085750    -0.3393776559     0.8534493780
Bq        -0.3921009506    -0.3786855365     0.0628524613
Bq        -0.5223845280    -0.3344641708     0.9522739926
Bq        -0.3776249976    -0.3835990216    -0.0359721533
Bq        -0.4500047628    -0.3590315962     0.4581509197
Bq        -0.4637685819    -0.2542388958     0.5521139295
Bq        -0.4348166758    -0.2640658659     0.3544647003
Bq        -0.4782445350    -0.2493254107     0.6509385441
Bq        -0.4203407228    -0.2689793510     0.2556400857
Bq        -0.4927204880    -0.2444119256     0.7497631586
Bq        -0.4058647697    -0.2738928361     0.1568154711
Bq        -0.5071964410    -0.2394984405     0.8485877732
Bq        -0.3913888167    -0.2788063212     0.0579908566
Bq        -0.5216723941    -0.2345849554     0.9474123878
Bq        -0.3769128636    -0.2837198063    -0.0408337580
Bq        -0.4492926289    -0.2591523808     0.4532893149
Bq        -0.4630564480    -0.1543596804     0.5472523247
Bq        -0.4341045419    -0.1641866505     0.3496030955
Bq        -0.4775324010    -0.1494461953     0.6460769393
Bq        -0.4196285888    -0.1691001356     0.2507784810
Bq        -0.4920083541    -0.1445327102     0.7449015539
Bq        -0.4051526358    -0.1740136207     0.1519538664
Bq        -0.5064843071    -0.1396192251     0.8437261685
Bq        -0.3906766827    -0.1789271058     0.0531292518
Bq        -0.5209602601    -0.1347057400     0.9425507830
Bq        -0.3762007297    -0.1838405909    -0.0456953628
Bq        -0.4485804949    -0.1592731655     0.4484277101
Bq        -0.4623443140    -0.0544804650     0.5423907199
Bq        -0.4333924079    -0.0643074352     0.3447414908
Bq        -0.4768202671    -0.0495669799     0.6412153345
Bq        -0.4189164549    -0.0692209203     0.2459168762
Bq        -0.4912962201    -0.0446534948     0.7400399491
Bq        -0.4044405018    -0.0741344053     0.1470922616
Bq        -0.5057721732    -0.0397400098     0.8388645637
Bq        -0.3899645488    -0.0790478904     0.0482676470
Bq        -0.5202481262    -0.0348265247     0.9376891783
Bq        -0.3754885958    -0.0839613755    -0.0505569676
Bq        -0.4478683610    -0.0593939501     0.4435661054
Bq        -0.4616321801     0.0453987504     0.5375291152
Bq        -0.4326802740     0.0355717802     0.3398798860
Bq        -0.4761081331     0.0503122355     0.6363537298
Bq        -0.4182043210     0.0306582951     0.2410552714
Bq        -0.4905840862     0.0552257205     0.7351783443
Bq        -0.4037283679     0.0257448100     0.1422306568
Bq        -0.5050600392     0.0601392056     0.8340029589
Bq        -0.3892524149     0.0208313250     0.0434060423
Bq        -0.5195359923     0.0650526907     0.9328275735
Bq        -0.3747764618     0.0159178399    -0.0554185723
Bq        -0.4471562270     0.0404852653     0.4387045006
Bq        -0.4609200461     0.1452779658     0.5326675104
Bq        -0.4319681401     0.1354509956     0.3350182812
Bq        -0.4753959992     0.1501914508     0.6314921250
Bq        -0.4174921870     0.1305375105     0.2361936667
Bq        -0.4898719522     0.1551049359     0.7303167396
Bq        -0.4030162340     0.1256240254     0.1373690521
Bq        -0.5043479053     0.1600184210     0.8291413542
Bq        -0.3885402809     0.1207105403     0.0385444375
Bq        -0.5188238583     0.1649319061     0.9279659687
Bq        -0.3740643279     0.1157970553    -0.0602801771
Bq        -0.4464440931     0.1403644807     0.4338428958
Bq        -0.4602079122     0.2451571811     0.5278059056
Bq        -0.4312560061     0.2353302110     0.3301566765
Bq        -0.4746838652     0.2500706662     0.6266305202
Bq        -0.4167800531     0.2304167259     0.2313320619
Bq        -0.4891598183     0.2549841513     0.7254551348
Bq        -0.4023041000     0.2255032408     0.1325074473
Bq        -0.5036357713     0.2598976364     0.8242797494
Bq        -0.3878281470     0.2205897557     0.0336828327
Bq        -0.5181117244     0.2648111215     0.9231043640
Bq        -0.3733521939     0.2156762706    -0.0651417819
Bq        -0.4457319592     0.2402436960     0.4289812911
Bq        -0.4594957783     0.3450363965     0.5229443009
Bq        -0.4305438722     0.3352094263     0.3252950717
Bq        -0.4739717313     0.3499498816     0.6217689155
Bq        -0.4160679191     0.3302959413     0.2264704571
Bq        -0.4884476843     0.3548633667     0.7205935300
Bq        -0.4015919661     0.3253824562     0.1276458425
Bq        -0.5029236374     0.3597768518     0.8194181446
Bq        -0.3871160130     0.3204689711     0.0288212280
Bq        -0.5173995904     0.3646903368     0.9182427592
Bq        -0.3726400600     0.3155554860    -0.0700033866
Bq        -0.4450198252     0.3401229114     0.4241196863
Bq        -0.4587836443     0.4449156119     0.5180826961
Bq        -0.4298317382     0.4350886417     0.3204334669
Bq        -0.4732595974     0.4498290970     0.6169073107
Bq        -0.4153557852     0.4301751566     0.2216088524
Bq        -0.4877355504     0.4547425820     0.7157319253
Bq        -0.4008798321     0.4252616716     0.1227842378
Bq        -0.5022115035     0.4596560671     0.8145565399
Bq        -0.3864038791     0.4203481865     0.0239596232
Bq        -0.5166874565     0.4645695522     0.9133811544
Bq        -0.3719279261     0.4154347014    -0.0748649914
Bq        -0.4443076913     0.4400021268     0.4192580815
Bq        -0.4580715104     0.5447948273     0.5132210913
Bq        -0.4291196043     0.5349678571     0.3155718622
Bq        -0.4725474634     0.5497083123     0.6120457059
Bq        -0.4146436512     0.5300543720     0.2167472476
Bq        -0.4870234165     0.5546217974     0.7108703205
Bq        -0.4001676982     0.5251408869     0.1179226330
Bq        -0.5014993695     0.5595352825     0.8096949351
Bq        -0.3856917452     0.5202274018     0.0190980184
Bq        -0.5159753226     0.5644487676     0.9085195497
Bq        -0.3712157921     0.5153139168    -0.0797265962
Bq        -0.4435955573     0.5398813422     0.4143964768
Bq        -0.4573593764     0.6446740426     0.5083594866
Bq        -0.4284074703     0.6348470725     0.3107102574
Bq        -0.4718353295     0.6495875277     0.6071841012
Bq        -0.4139315173     0.6299335874     0.2118856428
Bq        -0.4863112825     0.6545010128     0.7060087157
Bq        -0.3994555643     0.6250201023     0.1130610282
Bq        -0.5007872356     0.6594144979     0.8048333303
Bq        -0.3849796112     0.6201066172     0.0142364137
Bq        -0.5152631886     0.6643279830     0.9036579449
Bq        -0.3705036582     0.6151931321    -0.0845882009
Bq        -0.4428834234     0.6397605576     0.4095348720
Bq        -0.4566472425     0.7445532580     0.5034978818
Bq        -0.4276953364     0.7347262878     0.3058486526
Bq        -0.4711231955     0.7494667431     0.6023224964
Bq        -0.4132193834     0.7298128028     0.2070240381
Bq        -0.4855991486     0.7543802282     0.7011471110
Bq        -0.3987434303     0.7248993177     0.1081994235
Bq        -0.5000751016     0.7592937133     0.7999717256
Bq        -0.3842674773     0.7199858326     0.0093748089
Bq        -0.5145510547     0.7642071983     0.8987963401
Bq        -0.3697915242     0.7150723475    -0.0894498057
Bq        -0.4421712894     0.7396397729     0.4046732672
Bq        -0.4559351086     0.8444324734     0.4986362770
Bq        -0.4269832025     0.8346055032     0.3009870479
Bq        -0.4704110616     0.8493459585     0.5974608916
Bq        -0.4125072494     0.8296920181     0.2021624333
Bq        -0.4848870146     0.8542594436     0.6962855062
Bq        -0.3980312964     0.8247785331     0.1033378187
Bq        -0.4993629677     0.8591729286     0.7951101208
Bq        -0.3835553433     0.8198650480     0.0045132041
Bq        -0.5138389207     0.8640864137     0.8939347354
Bq        -0.3690793903     0.8149515629    -0.0943114105
Bq        -0.4414591555     0.8395189883     0.3998116625
Bq        -0.4552229746     0.9443116888     0.4937746723
Bq        -0.4262710685     0.9344847186     0.2961254431
Bq        -0.4696989277     0.9492251739     0.5925992869
Bq        -0.4117951155     0.9295712335     0.1973008285
Bq        -0.4841748807     0.9541386589     0.6914239014
Bq        -0.3973191624     0.9246577484     0.0984762139
Bq        -0.4986508337     0.9590521440     0.7902485160
Bq        -0.3828432094     0.9197442634    -0.0003484006
Bq        -0.5131267868     0.9639656291     0.8890731306
Bq        -0.3683672563     0.9148307783    -0.0991730152
Bq        -0.4407470216     0.9393982037     0.3949500577
Bq        -0.4545108407     1.0441909041     0.4889130675
Bq        -0.4255589346     1.0343639340     0.2912638383
Bq        -0.4689867937     1.0491043892     0.5877376821
Bq        -0.4110829815     1.0294504489     0.1924392238
Bq        -0.4834627468     1.0540178743     0.6865622967
Bq        -0.3966070285     1.0245369638     0.0936146092
Bq        -0.4979386998     1.0589313594     0.7853869113
Bq        -0.3821310754     1.0196234787    -0.0052100054
Bq        -0.5124146528     1.0638448445     0.8842115258
Bq        -0.3676551224     1.0147099936    -0.1040346200
Bq        -0.4400348876     1.0392774191     0.3900884529
Bq        -0.4537987067     1.1440701195     0.4840514627
Bq        -0.4248468006     1.1342431494     0.2864022336
Bq        -0.4682746598     1.1489836046     0.5828760773
Bq        -0.4103708476     1.1293296643     0.1875776190
Bq        -0.4827506128     1.1538970897     0.6817006919
Bq        -0.3958948945     1.1244161792     0.0887530044
Bq        -0.4972265659     1.1588105748     0.7805253065
Bq        -0.3814189415     1.1195026941    -0.0100716102
Bq        -0.5117025189     1.1637240599     0.8793499211
Bq        -0.3669429885     1.1145892090    -0.1088962248
Bq        -0.4393227537     1.1391566344     0.3852268482
Bq        -0.4530865728     1.2439493349     0.4791898580
Bq        -0.4241346667     1.2341223647     0.2815406288
Bq        -0.4675625258     1.2488628200     0.5780144726
Bq        -0.4096587137     1.2292088797     0.1827160142
Bq        -0.4820384789     1.2537763051     0.6768390871
Bq        -0.3951827606     1.2242953946     0.0838913996
Bq        -0.4965144319     1.2586897901     0.7756637017
Bq        -0.3807068076     1.2193819095    -0.0149332149
Bq        -0.5109903850     1.2636032752     0.8744883163
Bq        -0.3662308545     1.2144684244    -0.1137578295
Bq        -0.4386106197     1.2390358498     0.3803652434
Bq        -0.4523744388     1.3438285503     0.4743282532
Bq        -0.4234225328     1.3340015801     0.2766790240
Bq        -0.4668503919     1.3487420354     0.5731528678
Bq        -0.4089465797     1.3290880950     0.1778544095
Bq        -0.4813263449     1.3536555204     0.6719774824
Bq        -0.3944706267     1.3241746099     0.0790297949
Bq        -0.4958022980     1.3585690055     0.7708020970
Bq        -0.3799946736     1.3192611249    -0.0197948197

1
2
3
4
5
6
7
8
9
10
11
12
13
14
15
16
17
18
19
20
21
22
23
24
25
26
27
28
29
30
31
32
33
34
35
36
37
38
39
40
41
42
43
44
45
46
47
48
49
50
51
52
53
54
55
56
57
58
59
60
61
62
63
64
65
66
67
68
69
70
71
72
73
74
75
76
77
78
79
80
81
82
83
84
85
86
87
88
89
90
91
92
93
94
95
96
97
98
99
100
101
102
103
104
105
106
107
108
109
110
111
112
113
114
115
116
117
118
119
120
121
122
123
124
125
126
127
128
129
130
131
132
133
134
135
136
137
138
139
140
141
142
143
144
145
146
147
148
149
150
151
152
153
154
155
156
157
158
159
160
161
162
163
164
165
166
167
168
169
170
171
172
173
174
175
176
177
178
179
180
181
182
183
184
185
186
187
188
189
190
191
192
193
194
195
196
197
198
199
200
201
202
203
204
205
206
207
208
209
210
211
212
213
214
215
216
217
218
219
220
221
222
223
224
225
226
227
228
229
230
231
232
233
234
235
236

