%nproc=8
%mem=1000MB
# rb3lyp/6-311+g** NMR geom=connectivity

Title

0 1
C    -4.0500558   -0.5771862    0.8136712
H    -5.0263804   -1.0082727    1.0024760
C    -3.9381552    0.6617804    0.2400876
H    -4.8252424    1.2338890   -0.0111295
C    -2.6768410    1.2433246    0.0057578
C    -1.4974121    0.5051527    0.2848253
C    -1.6508332   -0.7338728    0.9404026
H    -0.7713646   -1.2730967    1.2633753
C    -2.8898548   -1.2624035    1.1994307
H    -2.9683706   -2.2124563    1.7152676
C    -2.5773185    2.5963696   -0.4192930
H    -3.4870728    3.1412239   -0.6474055
C    -1.3741895    3.2147896   -0.4364030
H    -1.2997315    4.2742019   -0.6578144
C    -0.1719488    2.4994090   -0.1734588
C    -0.2043917    1.1018437    0.0192689
C     1.0513491    3.2042560   -0.0676222
H     1.0427344    4.2819499   -0.1896997
C     2.1942091    2.5487446    0.2579577
H     3.1168527    3.0912848    0.4334727
C     2.2216473    1.1336562    0.2934990
C     1.0486931    0.3945528    0.0302412
C     3.4483363    0.4614633    0.5573939
H     4.3095794    1.0606054    0.8334846
C     3.5427346   -0.8855926    0.4749463
H     4.4731467   -1.3939704    0.7038822
C     2.4490052   -1.6474447   -0.0196319
C     1.2150704   -1.0057258   -0.3013573
C     0.2531113   -1.7434440   -1.0216591
H    -0.6541356   -1.2535051   -1.3462847
C     0.4494193   -3.0628597   -1.3413779
H    -0.3083162   -3.5944309   -1.9054060
C     1.6251726   -3.7207967   -0.9552541
H     1.7670048   -4.7687404   -1.1927019
C     2.6109872   -3.0144177   -0.3183050
H     3.5525612   -3.4902813   -0.0646367
Bq         0.9388807411     1.9893539256     1.0772615166
Bq         1.1443116556     2.1031751978     0.3125113238
Bq         0.9132018767     1.9751262666     1.1728552907
Bq         1.1699905200     2.1174028569     0.2169175497
Bq         1.0415961984     2.0462645617     0.6948864202
Bq         1.0122262835     2.1310195967     0.8042207339
Bq         1.0635840121     2.1594749148     0.6130331857
Bq         0.9865474192     2.1167919377     0.8998145080
Bq         1.0892628765     2.1737025738     0.5174394116
Bq         0.9608685549     2.1025642787     0.9954082821
Bq         1.1149417408     2.1879302328     0.4218456375
Bq         0.9351896905     2.0883366196     1.0910020561
Bq         1.1406206051     2.2021578919     0.3262518634
Bq         0.9095108262     2.0741089606     1.1865958302
Bq         1.1662994694     2.2163855509     0.2306580893
Bq         1.0379051478     2.1452472558     0.7086269598
Bq         1.2933550603    -2.8181151051     0.1431365377
Bq         1.3447127890    -2.7896597870    -0.0480510105
Bq         1.2676761960    -2.8323427641     0.2387303118
Bq         1.3703916533    -2.7754321280    -0.1436447846
Bq         1.2419973317    -2.8465704231     0.3343240859
Bq         1.3960705176    -2.7612044690    -0.2392385587
Bq         1.2163184673    -2.8607980821     0.4299178600
Bq         1.4217493819    -2.7469768099    -0.3348323328
Bq         1.1906396030    -2.8750257412     0.5255116341
Bq         1.4474282463    -2.7327491509    -0.4304261069
Bq         1.3190339246    -2.8038874460     0.0475427636
Bq         1.2896640098    -2.7191324110     0.1568770773
Bq         1.3410217384    -2.6906770930    -0.0343104709
Bq         1.2639851455    -2.7333600701     0.2524708514
Bq         1.3667006027    -2.6764494339    -0.1299042450
Bq         1.2383062811    -2.7475877291     0.3480646255
Bq         1.3923794671    -2.6622217749    -0.2254980191
Bq         1.2126274168    -2.7618153881     0.4436583995
Bq         1.4180583314    -2.6479941159    -0.3210917932
Bq         1.1869485525    -2.7760430471     0.5392521736
Bq         1.4437371957    -2.6337664569    -0.4166855673
Bq         1.3153428741    -2.7049047520     0.0612833032
Bq         1.2859729592    -2.6201497170     0.1706176168
Bq         1.3373306879    -2.5916943989    -0.0205699314
Bq         1.2602940949    -2.6343773760     0.2662113909
Bq         1.3630095522    -2.5774667399    -0.1161637055
Bq         1.2346152306    -2.6486050350     0.3618051650
Bq         1.3886884165    -2.5632390809    -0.2117574796
Bq         1.2089363663    -2.6628326941     0.4573989391
Bq         1.4143672809    -2.5490114219    -0.3073512536
Bq         1.1832575020    -2.6770603531     0.5529927132
Bq         1.4400461452    -2.5347837628    -0.4029450277
Bq         1.3116518236    -2.6059220580     0.0750238427
Bq         1.2822819087    -2.5211670230     0.1843581564
Bq         1.3336396374    -2.4927117049    -0.0068293918
Bq         1.2566030444    -2.5353946820     0.2799519305
Bq         1.3593185017    -2.4784840459    -0.1024231659
Bq         1.2309241801    -2.5496223410     0.3755457046
Bq         1.3849973660    -2.4642563868    -0.1980169400
Bq         1.2052453157    -2.5638500000     0.4711394787
Bq         1.4106762303    -2.4500287278    -0.2936107141
Bq         1.1795664514    -2.5780776591     0.5667332528
Bq         1.4363550946    -2.4358010688    -0.3892044882
Bq         1.3079607730    -2.5069393639     0.0887643823
Bq         1.2785908582    -2.4221843289     0.1980986959
Bq         1.3299485868    -2.3937290109     0.0069111478
Bq         1.2529119939    -2.4364119879     0.2936924700
Bq         1.3556274511    -2.3795013518    -0.0886826263
Bq         1.2272331295    -2.4506396470     0.3892862441
Bq         1.3813063155    -2.3652736928    -0.1842764004
Bq         1.2015542652    -2.4648673060     0.4848800182
Bq         1.4069851798    -2.3510460338    -0.2798701745
Bq         1.1758754009    -2.4790949650     0.5804737923
Bq         1.4326640441    -2.3368183748    -0.3754639486
Bq         1.3042697225    -2.4079566699     0.1025049218
Bq         1.2748998076    -2.3232016349     0.2118392355
Bq         1.3262575363    -2.2947463168     0.0206516873
Bq         1.2492209433    -2.3374292939     0.3074330096
Bq         1.3519364006    -2.2805186578    -0.0749420868
Bq         1.2235420790    -2.3516569529     0.4030267837
Bq         1.3776152649    -2.2662909988    -0.1705358609
Bq         1.1978632147    -2.3658846120     0.4986205578
Bq         1.4032941293    -2.2520633397    -0.2661296350
Bq         1.1721843504    -2.3801122710     0.5942143319
Bq         1.4289729936    -2.2378356807    -0.3617234091
Bq         1.3005786720    -2.3089739759     0.1162454614
Bq         1.2712087571    -2.2242189408     0.2255797751
Bq         1.3225664858    -2.1957636228     0.0343922269
Bq         1.2455298928    -2.2384465999     0.3211735492
Bq         1.3482453501    -2.1815359638    -0.0612015472
Bq         1.2198510285    -2.2526742589     0.4167673232
Bq         1.3739242144    -2.1673083047    -0.1567953213
Bq         1.1941721641    -2.2669019179     0.5123610973
Bq         1.3996030787    -2.1530806457    -0.2523890954
Bq         1.1684932998    -2.2811295770     0.6079548714
Bq         1.4252819430    -2.1388529867    -0.3479828695
Bq         1.2968876214    -2.2099912818     0.1299860010
Bq         1.2675177066    -2.1252362468     0.2393203146
Bq         1.3188754352    -2.0967809288     0.0481327664
Bq         1.2418388422    -2.1394639058     0.3349140887
Bq         1.3445542995    -2.0825532697    -0.0474610077
Bq         1.2161599779    -2.1536915649     0.4305078628
Bq         1.3702331639    -2.0683256107    -0.1430547818
Bq         1.1904811136    -2.1679192239     0.5261016369
Bq         1.3959120282    -2.0540979517    -0.2386485559
Bq         1.1648022493    -2.1821468829     0.6216954110
Bq         1.4215908925    -2.0398702926    -0.3342423299
Bq         1.2931965709    -2.1110085878     0.1437265405
Bq         1.2638266560    -2.0262535528     0.2530608542
Bq         1.3151843847    -1.9977982347     0.0618733060
Bq         1.2381477917    -2.0404812118     0.3486546283
Bq         1.3408632490    -1.9835705757    -0.0337204681
Bq         1.2124689274    -2.0547088708     0.4442484024
Bq         1.3665421133    -1.9693429167    -0.1293142422
Bq         1.1867900631    -2.0689365299     0.5398421765
Bq         1.3922209776    -1.9551152576    -0.2249080163
Bq         1.1611111987    -2.0831641889     0.6354359506
Bq         1.4178998420    -1.9408875986    -0.3205017904
Bq         1.2895055204    -2.0120258937     0.1574670801
Bq         1.2601356055    -1.9272708587     0.2668013937
Bq         1.3114933341    -1.8988155407     0.0756138455
Bq         1.2344567412    -1.9414985178     0.3623951678
Bq         1.3371721985    -1.8845878817    -0.0199799285
Bq         1.2087778769    -1.9557261768     0.4579889419
Bq         1.3628510628    -1.8703602226    -0.1155737026
Bq         1.1830990125    -1.9699538358     0.5535827160
Bq         1.3885299271    -1.8561325636    -0.2111674767
Bq         1.1574201482    -1.9841814949     0.6491764901
Bq         1.4142087914    -1.8419049046    -0.3067612508
Bq         1.2858144698    -1.9130431997     0.1712076196
Bq         1.2564445550    -1.8282881647     0.2805419333
Bq         1.3078022836    -1.7998328466     0.0893543851
Bq         1.2307656906    -1.8425158237     0.3761357074
Bq         1.3334811479    -1.7856051876    -0.0062393890
Bq         1.2050868263    -1.8567434828     0.4717294815
Bq         1.3591600123    -1.7713775286    -0.1018331631
Bq         1.1794079620    -1.8709711418     0.5673232556
Bq         1.3848388766    -1.7571498696    -0.1974269372
Bq         1.1537290977    -1.8851988008     0.6629170297
Bq         1.4105177409    -1.7429222105    -0.2930207113
Bq         1.2821234193    -1.8140605057     0.1849481592
Bq         1.2527535044    -1.7293054707     0.2942824729
Bq         1.3041112331    -1.7008501526     0.1030949247
Bq         1.2270746401    -1.7435331297     0.3898762469
Bq         1.3297900974    -1.6866224936     0.0075011506
Bq         1.2013957758    -1.7577607887     0.4854700210
Bq         1.3554689617    -1.6723948346    -0.0880926235
Bq         1.1757169115    -1.7719884478     0.5810637951
Bq         1.3811478260    -1.6581671755    -0.1836863976
Bq         1.1500380471    -1.7862161068     0.6766575692
Bq         1.4068266904    -1.6439395165    -0.2792801717
Bq         1.2784323688    -1.7150778116     0.1986886988
Bq         1.2490624539    -1.6303227766     0.3080230124
Bq         1.3004201825    -1.6018674586     0.1168354642
Bq         1.2233835896    -1.6445504357     0.4036167865
Bq         1.3260990469    -1.5876397995     0.0212416901
Bq         1.1977047252    -1.6587780947     0.4992105606
Bq         1.3517779112    -1.5734121405    -0.0743520840
Bq         1.1720258609    -1.6730057537     0.5948043347
Bq         1.3774567755    -1.5591844815    -0.1699458581
Bq         1.1463469966    -1.6872334127     0.6903981088
Bq         1.4031356398    -1.5449568225    -0.2655396322
Bq         1.2747413182    -1.6160951176     0.2124292383
Bq         1.2453714034    -1.5313400826     0.3217635520
Bq         1.2967291320    -1.5028847645     0.1305760038
Bq         1.2196925390    -1.5455677416     0.4173573261
Bq         1.3224079963    -1.4886571055     0.0349822297
Bq         1.1940136747    -1.5597954007     0.5129511002
Bq         1.3480868606    -1.4744294465    -0.0606115444
Bq         1.1683348104    -1.5740230597     0.6085448743
Bq         1.3737657250    -1.4602017875    -0.1562053185
Bq         1.1426559461    -1.5882507187     0.7041386484
Bq         1.3994445893    -1.4459741284    -0.2517990926
Bq         1.2710502677    -1.5171124236     0.2261697779
Bq         1.2416803528    -1.4323573886     0.3355040915
Bq         1.2930380815    -1.4039020705     0.1443165433
Bq         1.2160014885    -1.4465850476     0.4310978656
Bq         1.3187169458    -1.3896744115     0.0487227692
Bq         1.1903226242    -1.4608127066     0.5266916397
Bq         1.3443958101    -1.3754467524    -0.0468710048
Bq         1.1646437599    -1.4750403656     0.6222854138
Bq         1.3700746744    -1.3612190934    -0.1424647789
Bq         1.1389648955    -1.4892680247     0.7178791879
Bq         1.3957535388    -1.3469914344    -0.2380585530
Bq         1.2673592171    -1.4181297295     0.2399103174
Bq         1.2379893023    -1.3333746945     0.3492446311
Bq         1.2893470309    -1.3049193765     0.1580570829
Bq         1.2123104380    -1.3476023536     0.4448384052
Bq         1.3150258953    -1.2906917174     0.0624633088
Bq         1.1866315736    -1.3618300126     0.5404321793
Bq         1.3407047596    -1.2764640584    -0.0331304653
Bq         1.1609527093    -1.3760576716     0.6360259534
Bq         1.3663836239    -1.2622363994    -0.1287242394
Bq         1.1352738450    -1.3902853306     0.7316197275
Bq         1.3920624882    -1.2480087404    -0.2243180135
Bq         1.2636681666    -1.3191470355     0.2536508570
Bq         1.2342982518    -1.2343920005     0.3629851706
Bq         1.2856559804    -1.2059366824     0.1717976225
Bq         1.2086193874    -1.2486196595     0.4585789447
Bq         1.3113348447    -1.1917090234     0.0762038484
Bq         1.1829405231    -1.2628473185     0.5541727188
Bq         1.3370137090    -1.1774813644    -0.0193899257
Bq         1.1572616588    -1.2770749776     0.6497664929
Bq         1.3626925734    -1.1632537054    -0.1149836998

1
2
3
4
5
6
7
8
9
10
11
12
13
14
15
16
17
18
19
20
21
22
23
24
25
26
27
28
29
30
31
32
33
34
35
36
37
38
39
40
41
42
43
44
45
46
47
48
49
50
51
52
53
54
55
56
57
58
59
60
61
62
63
64
65
66
67
68
69
70
71
72
73
74
75
76
77
78
79
80
81
82
83
84
85
86
87
88
89
90
91
92
93
94
95
96
97
98
99
100
101
102
103
104
105
106
107
108
109
110
111
112
113
114
115
116
117
118
119
120
121
122
123
124
125
126
127
128
129
130
131
132
133
134
135
136
137
138
139
140
141
142
143
144
145
146
147
148
149
150
151
152
153
154
155
156
157
158
159
160
161
162
163
164
165
166
167
168
169
170
171
172
173
174
175
176
177
178
179
180
181
182
183
184
185
186
187
188
189
190
191
192
193
194
195
196
197
198
199
200
201
202
203
204
205
206
207
208
209
210
211
212
213
214
215
216
217
218
219
220
221
222
223
224
225
226
227
228
229
230
231
232
233
234
235
236

