%nproc=8
%mem=1000MB
# rb3lyp/6-311+g** NMR geom=connectivity

Title

0 1
C    -4.0500558   -0.5771862    0.8136712
H    -5.0263804   -1.0082727    1.0024760
C    -3.9381552    0.6617804    0.2400876
H    -4.8252424    1.2338890   -0.0111295
C    -2.6768410    1.2433246    0.0057578
C    -1.4974121    0.5051527    0.2848253
C    -1.6508332   -0.7338728    0.9404026
H    -0.7713646   -1.2730967    1.2633753
C    -2.8898548   -1.2624035    1.1994307
H    -2.9683706   -2.2124563    1.7152676
C    -2.5773185    2.5963696   -0.4192930
H    -3.4870728    3.1412239   -0.6474055
C    -1.3741895    3.2147896   -0.4364030
H    -1.2997315    4.2742019   -0.6578144
C    -0.1719488    2.4994090   -0.1734588
C    -0.2043917    1.1018437    0.0192689
C     1.0513491    3.2042560   -0.0676222
H     1.0427344    4.2819499   -0.1896997
C     2.1942091    2.5487446    0.2579577
H     3.1168527    3.0912848    0.4334727
C     2.2216473    1.1336562    0.2934990
C     1.0486931    0.3945528    0.0302412
C     3.4483363    0.4614633    0.5573939
H     4.3095794    1.0606054    0.8334846
C     3.5427346   -0.8855926    0.4749463
H     4.4731467   -1.3939704    0.7038822
C     2.4490052   -1.6474447   -0.0196319
C     1.2150704   -1.0057258   -0.3013573
C     0.2531113   -1.7434440   -1.0216591
H    -0.6541356   -1.2535051   -1.3462847
C     0.4494193   -3.0628597   -1.3413779
H    -0.3083162   -3.5944309   -1.9054060
C     1.6251726   -3.7207967   -0.9552541
H     1.7670048   -4.7687404   -1.1927019
C     2.6109872   -3.0144177   -0.3183050
H     3.5525612   -3.4902813   -0.0646367
Bq         0.8856710505    -4.3202567387    -1.3873249355
Bq         0.5269151764    -4.5597975986    -0.5974424131
Bq         0.9255328143    -4.2936410876    -1.4750896602
Bq         0.7262239953    -4.4267193431    -1.0362660366
Bq         0.6753557582    -4.3569420115    -0.9242680615
Bq         0.7550792857    -4.3037107093    -1.0997975109
Bq         0.6354939944    -4.3835576626    -0.8365033367
Bq         0.7949410495    -4.2770950582    -1.1875622356
Bq         0.5956322306    -4.4101733137    -0.7487386120
Bq         0.8348028133    -4.2504794071    -1.2753269603
Bq         0.5557704668    -4.4367889648    -0.6609738873
Bq         0.8746645771    -4.2238637560    -1.3630916850
Bq         0.5159087030    -4.4634046159    -0.5732091626
Bq         0.9145263409    -4.1972481049    -1.4508564097
Bq         0.7152175220    -4.3303263604    -1.0120327862
Bq         0.6643492848    -4.2605490288    -0.9000348110
Bq         0.7440728124    -4.2073177266    -1.0755642604
Bq         0.6244875210    -4.2871646799    -0.8122700863
Bq         0.7839345762    -4.1807020755    -1.1633289851
Bq         0.5846257572    -4.3137803310    -0.7245053616
Bq         0.8237963399    -4.1540864244    -1.2510937098
Bq         0.5447639934    -4.3403959821    -0.6367406369
Bq         0.8636581037    -4.1274707733    -1.3388584346
Bq         0.5049022296    -4.3670116332    -0.5489759121
Bq         0.9035198675    -4.1008551222    -1.4266231593
Bq         0.7042110486    -4.2339333777    -0.9877995357
Bq         0.6533428114    -4.1641560461    -0.8758015605
Bq         0.7330663390    -4.1109247439    -1.0513310100
Bq         0.6134810476    -4.1907716972    -0.7880368358
Bq         0.7729281028    -4.0843090928    -1.1390957347
Bq         0.5736192839    -4.2173873483    -0.7002721111
Bq         0.8127898666    -4.0576934417    -1.2268604594
Bq         0.5337575201    -4.2440029994    -0.6125073864
Bq         0.8526516304    -4.0310777905    -1.3146251841
Bq         0.4938957563    -4.2706186505    -0.5247426617
Bq         0.8925133942    -4.0044621394    -1.4023899088
Bq         0.6932045752    -4.1375403950    -0.9635662852
Bq         0.6423363381    -4.0677630634    -0.8515683101
Bq         0.7220598656    -4.0145317612    -1.0270977595
Bq         0.6024745743    -4.0943787145    -0.7638035854
Bq         0.7619216294    -3.9879161100    -1.1148624842
Bq         0.5626128105    -4.1209943656    -0.6760388607
Bq         0.8017833932    -3.9613004589    -1.2026272089
Bq         0.5227510467    -4.1476100167    -0.5882741359
Bq         0.8416451570    -3.9346848078    -1.2903919336
Bq         0.4828892829    -4.1742256678    -0.5005094112
Bq         0.8815069208    -3.9080691567    -1.3781566584
Bq         0.6821981018    -4.0411474123    -0.9393330348
Bq         0.6313298647    -3.9713700807    -0.8273350596
Bq         0.7110533923    -3.9181387784    -1.0028645090
Bq         0.5914681009    -3.9979857318    -0.7395703349
Bq         0.7509151560    -3.8915231273    -1.0906292338
Bq         0.5516063371    -4.0246013829    -0.6518056102
Bq         0.7907769198    -3.8649074762    -1.1783939585
Bq         0.5117445733    -4.0512170340    -0.5640408855
Bq         0.8306386836    -3.8382918251    -1.2661586832
Bq         0.4718828095    -4.0778326851    -0.4762761608
Bq         0.8705004474    -3.8116761740    -1.3539234079
Bq         0.6711916285    -3.9447544296    -0.9150997843
Bq         0.6203233913    -3.8749770979    -0.8031018092
Bq         0.7000469189    -3.8217457957    -0.9786312586
Bq         0.5804616275    -3.9015927491    -0.7153370844
Bq         0.7399086827    -3.7951301446    -1.0663959833
Bq         0.5405998637    -3.9282084002    -0.6275723597
Bq         0.7797704465    -3.7685144935    -1.1541607080
Bq         0.5007380999    -3.9548240513    -0.5398076350
Bq         0.8196322102    -3.7418988424    -1.2419254327
Bq         0.4608763362    -3.9814397024    -0.4520429103
Bq         0.8594939740    -3.7152831913    -1.3296901574
Bq         0.6601851551    -3.8483614468    -0.8908665339
Bq         0.6093169179    -3.7785841152    -0.7788685587
Bq         0.6890404455    -3.7253528130    -0.9543980081
Bq         0.5694551542    -3.8051997663    -0.6911038340
Bq         0.7289022093    -3.6987371619    -1.0421627328
Bq         0.5295933904    -3.8318154174    -0.6033391093
Bq         0.7687639731    -3.6721215108    -1.1299274576
Bq         0.4897316266    -3.8584310686    -0.5155743846
Bq         0.8086257369    -3.6455058597    -1.2176921823
Bq         0.4498698628    -3.8850467197    -0.4278096599
Bq         0.8484875007    -3.6188902086    -1.3054569070
Bq         0.6491786817    -3.7519684641    -0.8666332834
Bq         0.5983104446    -3.6821911325    -0.7546353082
Bq         0.6780339721    -3.6289598303    -0.9301647577
Bq         0.5584486808    -3.7088067836    -0.6668705835
Bq         0.7178957359    -3.6023441792    -1.0179294824
Bq         0.5185869170    -3.7354224347    -0.5791058588
Bq         0.7577574997    -3.5757285281    -1.1056942071
Bq         0.4787251532    -3.7620380858    -0.4913411341
Bq         0.7976192635    -3.5491128770    -1.1934589318
Bq         0.4388633894    -3.7886537369    -0.4035764094
Bq         0.8374810273    -3.5224972259    -1.2812236565
Bq         0.6381722084    -3.6555754814    -0.8424000330
Bq         0.5873039712    -3.5857981498    -0.7304020578
Bq         0.6670274988    -3.5325668476    -0.9059315072
Bq         0.5474422074    -3.6124138009    -0.6426373331
Bq         0.7068892626    -3.5059511965    -0.9936962319
Bq         0.5075804436    -3.6390294520    -0.5548726084
Bq         0.7467510263    -3.4793355454    -1.0814609566
Bq         0.4677186798    -3.6656451031    -0.4671078837
Bq         0.7866127901    -3.4527198943    -1.1692256814
Bq         0.4278569160    -3.6922607542    -0.3793431589
Bq         0.8264745539    -3.4261042432    -1.2569904061
Bq         0.6271657350    -3.5591824987    -0.8181667825
Bq         0.5762974978    -3.4894051671    -0.7061688073
Bq         0.6560210254    -3.4361738649    -0.8816982568
Bq         0.5364357340    -3.5160208182    -0.6184040826
Bq         0.6958827892    -3.4095582138    -0.9694629815
Bq         0.4965739702    -3.5426364693    -0.5306393579
Bq         0.7357445530    -3.3829425627    -1.0572277062
Bq         0.4567122065    -3.5692521204    -0.4428746332
Bq         0.7756063168    -3.3563269116    -1.1449924309
Bq         0.4168504427    -3.5958677715    -0.3551099085
Bq         0.8154680805    -3.3297112605    -1.2327571556
Bq         0.6161592616    -3.4627895160    -0.7939335320
Bq         0.5652910244    -3.3930121844    -0.6819355569
Bq         0.6450145520    -3.3397808822    -0.8574650063
Bq         0.5254292607    -3.4196278355    -0.5941708322
Bq         0.6848763158    -3.3131652311    -0.9452297310
Bq         0.4855674969    -3.4462434866    -0.5064061074
Bq         0.7247380796    -3.2865495800    -1.0329944557
Bq         0.4457057331    -3.4728591377    -0.4186413827
Bq         0.7645998434    -3.2599339288    -1.1207591804
Bq         0.4058439693    -3.4994747888    -0.3308766580
Bq         0.8044616072    -3.2333182777    -1.2085239051
Bq         0.6051527882    -3.3663965333    -0.7697002816
Bq         0.5542845511    -3.2966192017    -0.6577023064
Bq         0.6340080787    -3.2433878995    -0.8332317558
Bq         0.5144227873    -3.3232348528    -0.5699375817
Bq         0.6738698424    -3.2167722484    -0.9209964806
Bq         0.4745610235    -3.3498505039    -0.4821728570
Bq         0.7137316062    -3.1901565972    -1.0087612053
Bq         0.4346992597    -3.3764661550    -0.3944081323
Bq         0.7535933700    -3.1635409461    -1.0965259300
Bq         0.3948374959    -3.4030818061    -0.3066434076
Bq         0.7934551338    -3.1369252950    -1.1842906547
Bq         0.5941463149    -3.2700035506    -0.7454670311
Bq         0.5432780777    -3.2002262190    -0.6334690560
Bq         0.6230016053    -3.1469949167    -0.8089985054
Bq         0.5034163139    -3.2268418701    -0.5457043312
Bq         0.6628633691    -3.1203792656    -0.8967632301
Bq         0.4635545501    -3.2534575212    -0.4579396065
Bq         0.7027251329    -3.0937636145    -0.9845279548
Bq         0.4236927863    -3.2800731723    -0.3701748818
Bq         0.7425868966    -3.0671479634    -1.0722926795
Bq         0.3838310226    -3.3066888234    -0.2824101571
Bq         0.7824486604    -3.0405323123    -1.1600574042
Bq         0.5831398415    -3.1736105679    -0.7212337807
Bq         0.5322716043    -3.1038332362    -0.6092358055
Bq         0.6119951319    -3.0506019340    -0.7847652549
Bq         0.4924098405    -3.1304488874    -0.5214710808
Bq         0.6518568957    -3.0239862829    -0.8725299796
Bq         0.4525480768    -3.1570645385    -0.4337063561
Bq         0.6917186595    -2.9973706318    -0.9602947043
Bq         0.4126863130    -3.1836801896    -0.3459416314
Bq         0.7315804233    -2.9707549807    -1.0480594291
Bq         0.3728245492    -3.2102958407    -0.2581769066
Bq         0.7714421871    -2.9441393296    -1.1358241538
Bq         0.5721333681    -3.0772175851    -0.6970005302
Bq         0.5212651310    -3.0074402535    -0.5850025550
Bq         0.6009886585    -2.9542089513    -0.7605320045
Bq         0.4814033672    -3.0340559046    -0.4972378303
Bq         0.6408504223    -2.9275933002    -0.8482967292
Bq         0.4415416034    -3.0606715558    -0.4094731056
Bq         0.6807121861    -2.9009776491    -0.9360614539
Bq         0.4016798396    -3.0872872069    -0.3217083809
Bq         0.7205739499    -2.8743619980    -1.0238261786
Bq         0.3618180758    -3.1139028580    -0.2339436562
Bq         0.7604357137    -2.8477463469    -1.1115909033
Bq         0.5611268947    -2.9808246024    -0.6727672798
Bq         0.5102586576    -2.9110472708    -0.5607693046
Bq         0.5899821852    -2.8578159686    -0.7362987540
Bq         0.4703968938    -2.9376629219    -0.4730045799
Bq         0.6298439490    -2.8312003175    -0.8240634787
Bq         0.4305351300    -2.9642785730    -0.3852398552
Bq         0.6697057127    -2.8045846664    -0.9118282034
Bq         0.3906733662    -2.9908942241    -0.2974751304
Bq         0.7095674765    -2.7779690153    -0.9995929281
Bq         0.3508116024    -3.0175098753    -0.2097104057
Bq         0.7494292403    -2.7513533642    -1.0873576529
Bq         0.5501204214    -2.8844316197    -0.6485340293
Bq         0.4992521842    -2.8146542881    -0.5365360541
Bq         0.5789757118    -2.7614229859    -0.7120655035
Bq         0.4593904204    -2.8412699392    -0.4487713294
Bq         0.6188374756    -2.7348073348    -0.7998302283
Bq         0.4195286566    -2.8678855903    -0.3610066047
Bq         0.6586992394    -2.7081916837    -0.8875949530
Bq         0.3796668929    -2.8945012414    -0.2732418800
Bq         0.6985610032    -2.6815760326    -0.9753596777
Bq         0.3398051291    -2.9211168925    -0.1854771553
Bq         0.7384227669    -2.6549603815    -1.0631244024
Bq         0.5391139480    -2.7880386370    -0.6243007788
Bq         0.4882457108    -2.7182613054    -0.5123028037
Bq         0.5679692384    -2.6650300032    -0.6878322531
Bq         0.4483839471    -2.7448769565    -0.4245380790
Bq         0.6078310022    -2.6384143521    -0.7755969778
Bq         0.4085221833    -2.7714926076    -0.3367733542
Bq         0.6476927660    -2.6117987010    -0.8633617025
Bq         0.3686604195    -2.7981082587    -0.2490086295
Bq         0.6875545298    -2.5851830499    -0.9511264272
Bq         0.3287986557    -2.8247239098    -0.1612439048

1
2
3
4
5
6
7
8
9
10
11
12
13
14
15
16
17
18
19
20
21
22
23
24
25
26
27
28
29
30
31
32
33
34
35
36
37
38
39
40
41
42
43
44
45
46
47
48
49
50
51
52
53
54
55
56
57
58
59
60
61
62
63
64
65
66
67
68
69
70
71
72
73
74
75
76
77
78
79
80
81
82
83
84
85
86
87
88
89
90
91
92
93
94
95
96
97
98
99
100
101
102
103
104
105
106
107
108
109
110
111
112
113
114
115
116
117
118
119
120
121
122
123
124
125
126
127
128
129
130
131
132
133
134
135
136
137
138
139
140
141
142
143
144
145
146
147
148
149
150
151
152
153
154
155
156
157
158
159
160
161
162
163
164
165
166
167
168
169
170
171
172
173
174
175
176
177
178
179
180
181
182
183
184
185
186
187
188
189
190
191
192
193
194
195
196
197
198
199
200
201
202
203
204
205
206
207
208
209
210
211
212
213
214
215
216
217
218
219
220
221
222
223
224
225
226
227
228
229
230
231
232
233
234
235
236

