%nproc=8
%mem=1000MB
# rb3lyp/6-311+g** NMR geom=connectivity

Title

0 1
C    -4.0500558   -0.5771862    0.8136712
H    -5.0263804   -1.0082727    1.0024760
C    -3.9381552    0.6617804    0.2400876
H    -4.8252424    1.2338890   -0.0111295
C    -2.6768410    1.2433246    0.0057578
C    -1.4974121    0.5051527    0.2848253
C    -1.6508332   -0.7338728    0.9404026
H    -0.7713646   -1.2730967    1.2633753
C    -2.8898548   -1.2624035    1.1994307
H    -2.9683706   -2.2124563    1.7152676
C    -2.5773185    2.5963696   -0.4192930
H    -3.4870728    3.1412239   -0.6474055
C    -1.3741895    3.2147896   -0.4364030
H    -1.2997315    4.2742019   -0.6578144
C    -0.1719488    2.4994090   -0.1734588
C    -0.2043917    1.1018437    0.0192689
C     1.0513491    3.2042560   -0.0676222
H     1.0427344    4.2819499   -0.1896997
C     2.1942091    2.5487446    0.2579577
H     3.1168527    3.0912848    0.4334727
C     2.2216473    1.1336562    0.2934990
C     1.0486931    0.3945528    0.0302412
C     3.4483363    0.4614633    0.5573939
H     4.3095794    1.0606054    0.8334846
C     3.5427346   -0.8855926    0.4749463
H     4.4731467   -1.3939704    0.7038822
C     2.4490052   -1.6474447   -0.0196319
C     1.2150704   -1.0057258   -0.3013573
C     0.2531113   -1.7434440   -1.0216591
H    -0.6541356   -1.2535051   -1.3462847
C     0.4494193   -3.0628597   -1.3413779
H    -0.3083162   -3.5944309   -1.9054060
C     1.6251726   -3.7207967   -0.9552541
H     1.7670048   -4.7687404   -1.1927019
C     2.6109872   -3.0144177   -0.3183050
H     3.5525612   -3.4902813   -0.0646367
Bq         1.0413812944    -2.4024667062    -0.2792474512
Bq         0.9905130572    -2.3326893746    -0.1672494761
Bq         1.0702365848    -2.2794580723    -0.3427789255
Bq         0.9506512934    -2.3593050257    -0.0794847514
Bq         1.1100983486    -2.2528424212    -0.4305436502
Bq         0.9107895297    -2.3859206768     0.0082799734
Bq         1.1499601124    -2.2262267701    -0.5183083749
Bq         0.8709277659    -2.4125363279     0.0960446981
Bq         1.1898218762    -2.1996111190    -0.6060730996
Bq         0.8310660021    -2.4391519790     0.1838094228
Bq         1.2296836400    -2.1729954679    -0.6938378243
Bq         1.0303748210    -2.3060737234    -0.2550142008
Bq         0.9795065839    -2.2362963918    -0.1430162256
Bq         1.0592301114    -2.1830650896    -0.3185456750
Bq         0.9396448201    -2.2629120429    -0.0552515009
Bq         1.0990918752    -2.1564494385    -0.4063103997
Bq         0.8997830563    -2.2895276941     0.0325132238
Bq         1.1389536390    -2.1298337874    -0.4940751245
Bq         0.8599212925    -2.3161433452     0.1202779485
Bq         1.1788154028    -2.1032181363    -0.5818398492
Bq         0.8200595287    -2.3427589963     0.2080426732
Bq         1.2186771666    -2.0766024852    -0.6696045739
Bq         1.0193683477    -2.2096807407    -0.2307809503
Bq         0.9685001105    -2.1399034091    -0.1187829751
Bq         1.0482236381    -2.0866721069    -0.2943124246
Bq         0.9286383467    -2.1665190602    -0.0310182504
Bq         1.0880854019    -2.0600564558    -0.3820771493
Bq         0.8887765829    -2.1931347113     0.0567464743
Bq         1.1279471656    -2.0334408047    -0.4698418740
Bq         0.8489148191    -2.2197503624     0.1445111990
Bq         1.1678089294    -2.0068251536    -0.5576065987
Bq         0.8090530553    -2.2463660136     0.2322759237
Bq         1.2076706932    -1.9802095025    -0.6453713234
Bq         1.0083618743    -2.1132877580    -0.2065476999
Bq         0.9574936371    -2.0435104264    -0.0945497247
Bq         1.0372171647    -1.9902791242    -0.2700791741
Bq         0.9176318733    -2.0701260775    -0.0067850000
Bq         1.0770789285    -1.9636634731    -0.3578438988
Bq         0.8777701095    -2.0967417286     0.0809797247
Bq         1.1169406923    -1.9370478220    -0.4456086235
Bq         0.8379083458    -2.1233573797     0.1687444494
Bq         1.1568024561    -1.9104321709    -0.5333733483
Bq         0.7980465820    -2.1499730308     0.2565091742
Bq         1.1966642198    -1.8838165198    -0.6211380730
Bq         0.9973554009    -2.0168947753    -0.1823144494
Bq         0.9464871637    -1.9471174437    -0.0703164742
Bq         1.0262106913    -1.8938861415    -0.2458459237
Bq         0.9066254000    -1.9737330948     0.0174482505
Bq         1.0660724551    -1.8672704904    -0.3336106484
Bq         0.8667636362    -2.0003487459     0.1052129752
Bq         1.1059342189    -1.8406548393    -0.4213753731
Bq         0.8269018724    -2.0269643970     0.1929776999
Bq         1.1457959827    -1.8140391882    -0.5091400978
Bq         0.7870401086    -2.0535800481     0.2807424246
Bq         1.1856577465    -1.7874235371    -0.5969048225
Bq         0.9863489275    -1.9205017926    -0.1580811989
Bq         0.9354806904    -1.8507244610    -0.0460832238
Bq         1.0152042180    -1.7974931588    -0.2216126732
Bq         0.8956189266    -1.8773401121     0.0416815009
Bq         1.0550659817    -1.7708775077    -0.3093773979
Bq         0.8557571628    -1.9039557632     0.1294462257
Bq         1.0949277455    -1.7442618566    -0.3971421226
Bq         0.8158953990    -1.9305714143     0.2172109504
Bq         1.1347895093    -1.7176462055    -0.4849068473
Bq         0.7760336352    -1.9571870654     0.3049756751
Bq         1.1746512731    -1.6910305543    -0.5726715721
Bq         0.9753424542    -1.8241088099    -0.1338479485
Bq         0.9244742170    -1.7543314783    -0.0218499733
Bq         1.0041977446    -1.7011001761    -0.1973794227
Bq         0.8846124532    -1.7809471294     0.0659147514
Bq         1.0440595084    -1.6744845250    -0.2851441475
Bq         0.8447506894    -1.8075627805     0.1536794761
Bq         1.0839212722    -1.6478688739    -0.3729088722
Bq         0.8048889256    -1.8341784316     0.2414442008
Bq         1.1237830359    -1.6212532227    -0.4606735969
Bq         0.7650271619    -1.8607940827     0.3292089255
Bq         1.1636447997    -1.5946375716    -0.5484383216
Bq         0.9643359808    -1.7277158272    -0.1096146980
Bq         0.9134677436    -1.6579384956     0.0023832771
Bq         0.9931912712    -1.6047071934    -0.1731461723
Bq         0.8736059798    -1.6845541467     0.0901480019
Bq         1.0330530350    -1.5780915422    -0.2609108970
Bq         0.8337442161    -1.7111697978     0.1779127266
Bq         1.0729147988    -1.5514758911    -0.3486756217
Bq         0.7938824523    -1.7377854489     0.2656774513
Bq         1.1127765626    -1.5248602400    -0.4364403464
Bq         0.7540206885    -1.7644011000     0.3534421760
Bq         1.1526383264    -1.4982445889    -0.5242050711
Bq         0.9533295074    -1.6313228445    -0.0853814476
Bq         0.9024612703    -1.5615455129     0.0266165276
Bq         0.9821847978    -1.5083142106    -0.1489129218
Bq         0.8625995065    -1.5881611640     0.1143812523
Bq         1.0220465616    -1.4816985595    -0.2366776465
Bq         0.8227377427    -1.6147768151     0.2021459770
Bq         1.0619083254    -1.4550829084    -0.3244423713
Bq         0.7828759789    -1.6413924662     0.2899107017
Bq         1.1017700892    -1.4284672573    -0.4122070960
Bq         0.7430142151    -1.6680081173     0.3776754265
Bq         1.1416318530    -1.4018516062    -0.4999718207
Bq         0.9423230340    -1.5349298617    -0.0611481971
Bq         0.8914547969    -1.4651525301     0.0508497781
Bq         0.9711783245    -1.4119212279    -0.1246796714
Bq         0.8515930331    -1.4917681812     0.1386145028
Bq         1.0110400883    -1.3853055768    -0.2124443961
Bq         0.8117312693    -1.5183838324     0.2263792275
Bq         1.0509018520    -1.3586899257    -0.3002091208
Bq         0.7718695055    -1.5449994835     0.3141439522
Bq         1.0907636158    -1.3320742746    -0.3879738455
Bq         0.7320077417    -1.5716151346     0.4019086769
Bq         1.1306253796    -1.3054586235    -0.4757385702
Bq         0.9313165607    -1.4385368790    -0.0369149467
Bq         0.8804483235    -1.3687595474     0.0750830285
Bq         0.9601718511    -1.3155282452    -0.1004464209
Bq         0.8405865597    -1.3953751985     0.1628477532
Bq         1.0000336149    -1.2889125941    -0.1882111456
Bq         0.8007247959    -1.4219908496     0.2506124779
Bq         1.0398953787    -1.2622969430    -0.2759758703
Bq         0.7608630322    -1.4486065008     0.3383772027
Bq         1.0797571425    -1.2356812919    -0.3637405950
Bq         0.7210012684    -1.4752221519     0.4261419274
Bq         1.1196189062    -1.2090656408    -0.4515053198
Bq         0.9203100873    -1.3421438963    -0.0126816962
Bq         0.8694418501    -1.2723665647     0.0993162790
Bq         0.9491653777    -1.2191352625    -0.0762131705
Bq         0.8295800864    -1.2989822158     0.1870810037
Bq         0.9890271415    -1.1925196114    -0.1639778952
Bq         0.7897183226    -1.3255978669     0.2748457284
Bq         1.0288889053    -1.1659039603    -0.2517426199
Bq         0.7498565588    -1.3522135180     0.3626104531
Bq         1.0687506691    -1.1392883092    -0.3395073446
Bq         0.7099947950    -1.3788291691     0.4503751778
Bq         1.1086124329    -1.1126726581    -0.4272720693
Bq         0.9093036139    -1.2457509136     0.0115515543
Bq         0.8584353768    -1.1759735820     0.1235495294
Bq         0.9381589043    -1.1227422798    -0.0519799200
Bq         0.8185736130    -1.2025892331     0.2113142541
Bq         0.9780206681    -1.0961266287    -0.1397446447
Bq         0.7787118492    -1.2292048842     0.2990789789
Bq         1.0178824319    -1.0695109776    -0.2275093694
Bq         0.7388500854    -1.2558205353     0.3868437036
Bq         1.0577441957    -1.0428953265    -0.3152740941
Bq         0.6989883216    -1.2824361864     0.4746084283
Bq         1.0976059595    -1.0162796754    -0.4030388188
Bq         0.8982971406    -1.1493579309     0.0357848047
Bq         0.8474289034    -1.0795805993     0.1477827799
Bq         0.9271524310    -1.0263492971    -0.0277466695
Bq         0.8075671396    -1.1061962504     0.2355475046
Bq         0.9670141948    -0.9997336460    -0.1155113942
Bq         0.7677053758    -1.1328119015     0.3233122293
Bq         1.0068759585    -0.9731179949    -0.2032761190
Bq         0.7278436120    -1.1594275526     0.4110769540
Bq         1.0467377223    -0.9465023438    -0.2910408437
Bq         0.6879818482    -1.1860432037     0.4988416787
Bq         1.0865994861    -0.9198866927    -0.3788055684
Bq         0.8872906672    -1.0529649482     0.0600180552
Bq         0.8364224300    -0.9831876166     0.1720160303
Bq         0.9161459576    -0.9299563144    -0.0035134191
Bq         0.7965606662    -1.0098032677     0.2597807551
Bq         0.9560077214    -0.9033406633    -0.0912781438
Bq         0.7566989025    -1.0364189188     0.3475454798
Bq         0.9958694852    -0.8767250122    -0.1790428685
Bq         0.7168371387    -1.0630345699     0.4353102045
Bq         1.0357312490    -0.8501093610    -0.2668075932
Bq         0.6769753749    -1.0896502210     0.5230749292
Bq         1.0755930128    -0.8234937099    -0.3545723179
Bq         0.8762841938    -0.9565719655     0.0842513056
Bq         0.8254159567    -0.8867946339     0.1962492808
Bq         0.9051394842    -0.8335633317     0.0207198314
Bq         0.7855541929    -0.9134102850     0.2840140055
Bq         0.9450012480    -0.8069476805    -0.0670448933
Bq         0.7456924291    -0.9400259361     0.3717787302
Bq         0.9848630118    -0.7803320294    -0.1548096180
Bq         0.7058306653    -0.9666415872     0.4595434549
Bq         1.0247247756    -0.7537163783    -0.2425743428
Bq         0.6659689015    -0.9932572383     0.5473081797
Bq         1.0645865394    -0.7271007272    -0.3303390675
Bq         0.8652777204    -0.8601789828     0.1084845561
Bq         0.8144094833    -0.7904016512     0.2204825313
Bq         0.8941330109    -0.7371703489     0.0449530818
Bq         0.7745477195    -0.8170173023     0.3082472560
Bq         0.9339947746    -0.7105546978    -0.0428116429
Bq         0.7346859557    -0.8436329534     0.3960119807
Bq         0.9738565384    -0.6839390467    -0.1305763676
Bq         0.6948241919    -0.8702486045     0.4837767054
Bq         1.0137183022    -0.6573233956    -0.2183410923
Bq         0.6549624281    -0.8968642556     0.5715414301
Bq         1.0535800660    -0.6307077445    -0.3061058170
Bq         0.8542712471    -0.7637860000     0.1327178066
Bq         0.8034030099    -0.6940086684     0.2447157817
Bq         0.8831265375    -0.6407773662     0.0691863323
Bq         0.7635412461    -0.7206243196     0.3324805064
Bq         0.9229883013    -0.6141617151    -0.0185783924
Bq         0.7236794823    -0.7472399707     0.4202452311
Bq         0.9628500651    -0.5875460640    -0.1063431171
Bq         0.6838177185    -0.7738556218     0.5080099559
Bq         1.0027118288    -0.5609304129    -0.1941078418
Bq         0.6439559548    -0.8004712729     0.5957746806
Bq         1.0425735926    -0.5343147618    -0.2818725666
Bq         0.8432647737    -0.6673930173     0.1569510570
Bq         0.7923965365    -0.5976156857     0.2689490322

1
2
3
4
5
6
7
8
9
10
11
12
13
14
15
16
17
18
19
20
21
22
23
24
25
26
27
28
29
30
31
32
33
34
35
36
37
38
39
40
41
42
43
44
45
46
47
48
49
50
51
52
53
54
55
56
57
58
59
60
61
62
63
64
65
66
67
68
69
70
71
72
73
74
75
76
77
78
79
80
81
82
83
84
85
86
87
88
89
90
91
92
93
94
95
96
97
98
99
100
101
102
103
104
105
106
107
108
109
110
111
112
113
114
115
116
117
118
119
120
121
122
123
124
125
126
127
128
129
130
131
132
133
134
135
136
137
138
139
140
141
142
143
144
145
146
147
148
149
150
151
152
153
154
155
156
157
158
159
160
161
162
163
164
165
166
167
168
169
170
171
172
173
174
175
176
177
178
179
180
181
182
183
184
185
186
187
188
189
190
191
192
193
194
195
196
197
198
199
200
201
202
203
204
205
206
207
208
209
210
211
212
213
214
215
216
217
218
219
220
221
222
223
224
225
226
227
228
229
230
231
232
233
234
235
236

