%nproc=8
%mem=1000MB
# rb3lyp/6-311+g** NMR geom=connectivity

Title

0 1
C    -4.0500558   -0.5771862    0.8136712
H    -5.0263804   -1.0082727    1.0024760
C    -3.9381552    0.6617804    0.2400876
H    -4.8252424    1.2338890   -0.0111295
C    -2.6768410    1.2433246    0.0057578
C    -1.4974121    0.5051527    0.2848253
C    -1.6508332   -0.7338728    0.9404026
H    -0.7713646   -1.2730967    1.2633753
C    -2.8898548   -1.2624035    1.1994307
H    -2.9683706   -2.2124563    1.7152676
C    -2.5773185    2.5963696   -0.4192930
H    -3.4870728    3.1412239   -0.6474055
C    -1.3741895    3.2147896   -0.4364030
H    -1.2997315    4.2742019   -0.6578144
C    -0.1719488    2.4994090   -0.1734588
C    -0.2043917    1.1018437    0.0192689
C     1.0513491    3.2042560   -0.0676222
H     1.0427344    4.2819499   -0.1896997
C     2.1942091    2.5487446    0.2579577
H     3.1168527    3.0912848    0.4334727
C     2.2216473    1.1336562    0.2934990
C     1.0486931    0.3945528    0.0302412
C     3.4483363    0.4614633    0.5573939
H     4.3095794    1.0606054    0.8334846
C     3.5427346   -0.8855926    0.4749463
H     4.4731467   -1.3939704    0.7038822
C     2.4490052   -1.6474447   -0.0196319
C     1.2150704   -1.0057258   -0.3013573
C     0.2531113   -1.7434440   -1.0216591
H    -0.6541356   -1.2535051   -1.3462847
C     0.4494193   -3.0628597   -1.3413779
H    -0.3083162   -3.5944309   -1.9054060
C     1.6251726   -3.7207967   -0.9552541
H     1.7670048   -4.7687404   -1.1927019
C     2.6109872   -3.0144177   -0.3183050
H     3.5525612   -3.4902813   -0.0646367
Bq         2.1809072584     0.0552257205     1.1265017350
Bq         2.2677629766     0.0257448100     0.5335540475
Bq         2.1664313053     0.0601392056     1.2253263496
Bq         2.2822389297     0.0208313250     0.4347294329
Bq         2.1519553523     0.0650526907     1.3241509642
Bq         2.2967148827     0.0159178399     0.3359048183
Bq         2.2243351175     0.0404852653     0.8300278913
Bq         2.2105712984     0.1452779658     0.9239909011
Bq         2.2395232045     0.1354509956     0.7263416719
Bq         2.1960953453     0.1501914508     1.0228155157
Bq         2.2539991575     0.1305375105     0.6275170573
Bq         2.1816193923     0.1551049359     1.1216401303
Bq         2.2684751106     0.1256240254     0.5286924427
Bq         2.1671434393     0.1600184210     1.2204647448
Bq         2.2829510636     0.1207105403     0.4298678282
Bq         2.1526674862     0.1649319061     1.3192893594
Bq         2.2974270167     0.1157970553     0.3310432136
Bq         2.2250472514     0.1403644807     0.8251662865
Bq         2.2112834323     0.2451571811     0.9191292963
Bq         2.2402353384     0.2353302110     0.7214800672
Bq         2.1968074793     0.2500706662     1.0179539109
Bq         2.2547112915     0.2304167259     0.6226554526
Bq         2.1823315262     0.2549841513     1.1167785255
Bq         2.2691872445     0.2255032408     0.5238308380
Bq         2.1678555732     0.2598976364     1.2156031401
Bq         2.2836631976     0.2205897557     0.4250062234
Bq         2.1533796202     0.2648111215     1.3144277547
Bq         2.2981391506     0.2156762706     0.3261816088
Bq         2.2257593854     0.2402436960     0.8203046817
Bq         2.2119955663     0.3450363965     0.9142676916
Bq         2.2409474724     0.3352094263     0.7166184624
Bq         2.1975196132     0.3499498816     1.0130923061
Bq         2.2554234254     0.3302959413     0.6177938478
Bq         2.1830436602     0.3548633667     1.1119169207
Bq         2.2698993784     0.3253824562     0.5189692332
Bq         2.1685677071     0.3597768518     1.2107415353
Bq         2.2843753315     0.3204689711     0.4201446186
Bq         2.1540917541     0.3646903368     1.3095661499
Bq         2.2988512845     0.3155554860     0.3213200040
Bq         2.2264715193     0.3401229114     0.8154430770
Bq         2.2127077002     0.4449156119     0.9094060868
Bq         2.2416596063     0.4350886417     0.7117568576
Bq         2.1982317472     0.4498290970     1.0082307014
Bq         2.2561355593     0.4301751566     0.6129322430
Bq         2.1837557941     0.4547425820     1.1070553160
Bq         2.2706115124     0.4252616716     0.5141076284
Bq         2.1692798411     0.4596560671     1.2058799305
Bq         2.2850874654     0.4203481865     0.4152830139
Bq         2.1548038880     0.4645695522     1.3047045451
Bq         2.2995634185     0.4154347014     0.3164583993
Bq         2.2271836533     0.4400021268     0.8105814722
Bq         2.2134198342     0.5447948273     0.9045444820
Bq         2.2423717402     0.5349678571     0.7068952529
Bq         2.1989438811     0.5497083123     1.0033690966
Bq         2.2568476933     0.5300543720     0.6080706383
Bq         2.1844679281     0.5546217974     1.1021937112
Bq         2.2713236463     0.5251408869     0.5092460237
Bq         2.1699919750     0.5595352825     1.2010183258
Bq         2.2857995994     0.5202274018     0.4104214091
Bq         2.1555160220     0.5644487676     1.2998429404
Bq         2.3002755524     0.5153139168     0.3115967945
Bq         2.2278957872     0.5398813422     0.8057198674
Bq         2.2141319681     0.6446740426     0.8996828773
Bq         2.2430838742     0.6348470725     0.7020336481
Bq         2.1996560151     0.6495875277     0.9985074918
Bq         2.2575598272     0.6299335874     0.6032090335
Bq         2.1851800620     0.6545010128     1.0973321064
Bq         2.2720357803     0.6250201023     0.5043844189
Bq         2.1707041090     0.6594144979     1.1961567210
Bq         2.2865117333     0.6201066172     0.4055598043
Bq         2.1562281559     0.6643279830     1.2949813356
Bq         2.3009876864     0.6151931321     0.3067351897
Bq         2.2286079211     0.6397605576     0.8008582627
Bq         2.2148441020     0.7445532580     0.8948212725
Bq         2.2437960081     0.7347262878     0.6971720433
Bq         2.2003681490     0.7494667431     0.9936458871
Bq         2.2582719612     0.7298128028     0.5983474287
Bq         2.1858921960     0.7543802282     1.0924705017
Bq         2.2727479142     0.7248993177     0.4995228141
Bq         2.1714162429     0.7592937133     1.1912951162
Bq         2.2872238673     0.7199858326     0.4006981996
Bq         2.1569402899     0.7642071983     1.2901197308
Bq         2.3016998203     0.7150723475     0.3018735850
Bq         2.2293200551     0.7396397729     0.7959966579
Bq         2.2155562360     0.8444324734     0.8899596677
Bq         2.2445081421     0.8346055032     0.6923104386
Bq         2.2010802829     0.8493459585     0.9887842823
Bq         2.2589840951     0.8296920181     0.5934858240
Bq         2.1866043299     0.8542594436     1.0876088969
Bq         2.2734600482     0.8247785331     0.4946612094
Bq         2.1721283768     0.8591729286     1.1864335115
Bq         2.2879360012     0.8198650480     0.3958365948
Bq         2.1576524238     0.8640864137     1.2852581261
Bq         2.3024119542     0.8149515629     0.2970119802
Bq         2.2300321890     0.8395189883     0.7911350531
Bq         2.2162683699     0.9443116888     0.8850980630
Bq         2.2452202760     0.9344847186     0.6874488338
Bq         2.2017924169     0.9492251739     0.9839226775
Bq         2.2596962291     0.9295712335     0.5886242192
Bq         2.1873164638     0.9541386589     1.0827472921
Bq         2.2741721821     0.9246577484     0.4897996046
Bq         2.1728405108     0.9590521440     1.1815719067
Bq         2.2886481351     0.9197442634     0.3909749900
Bq         2.1583645577     0.9639656291     1.2803965213
Bq         2.3031240882     0.9148307783     0.2921503754
Bq         2.2307443230     0.9393982037     0.7862734484
Bq         2.2169805039     1.0441909041     0.8802364582
Bq         2.2459324100     1.0343639340     0.6825872290
Bq         2.2025045508     1.0491043892     0.9790610728
Bq         2.2604083630     1.0294504489     0.5837626144
Bq         2.1880285978     1.0540178743     1.0778856874
Bq         2.2748843160     1.0245369638     0.4849379998
Bq         2.1735526447     1.0589313594     1.1767103019
Bq         2.2893602691     1.0196234787     0.3861133853
Bq         2.1590766917     1.0638448445     1.2755349165
Bq         2.3038362221     1.0147099936     0.2872887707
Bq         2.2314564569     1.0392774191     0.7814118436
Bq         2.2176926378     1.1440701195     0.8753748534
Bq         2.2466445439     1.1342431494     0.6777256243
Bq         2.2032166848     1.1489836046     0.9741994680
Bq         2.2611204969     1.1293296643     0.5789010097
Bq         2.1887407317     1.1538970897     1.0730240826
Bq         2.2755964500     1.1244161792     0.4800763951
Bq         2.1742647787     1.1588105748     1.1718486972
Bq         2.2900724030     1.1195026941     0.3812517805
Bq         2.1597888256     1.1637240599     1.2706733118
Bq         2.3045483561     1.1145892090     0.2824271659
Bq         2.2321685909     1.1391566344     0.7765502388
Bq         2.2184047717     1.2439493349     0.8705132487
Bq         2.2473566778     1.2341223647     0.6728640195
Bq         2.2039288187     1.2488628200     0.9693378632
Bq         2.2618326309     1.2292088797     0.5740394049
Bq         2.1894528657     1.2537763051     1.0681624778
Bq         2.2763085839     1.2242953946     0.4752147903
Bq         2.1749769126     1.2586897901     1.1669870924
Bq         2.2907845370     1.2193819095     0.3763901757
Bq         2.1605009596     1.2636032752     1.2658117070
Bq         2.3052604900     1.2144684244     0.2775655611
Bq         2.2328807248     1.2390358498     0.7716886341
Bq         2.2191169057     1.3438285503     0.8656516439
Bq         2.2480688118     1.3340015801     0.6680024147
Bq         2.2046409526     1.3487420354     0.9644762585
Bq         2.2625447648     1.3290880950     0.5691778001
Bq         2.1901649996     1.3536555204     1.0633008731
Bq         2.2770207179     1.3241746099     0.4703531855
Bq         2.1756890466     1.3585690055     1.1621254876
Bq         2.2914966709     1.3192611249     0.3715285710
Bq         2.1612130935     1.3634824906     1.2609501022
Bq         2.3059726240     1.3143476398     0.2727039564
Bq         2.2335928587     1.3389150652     0.7668270293
Bq         2.2198290396     1.4437077657     0.8607900391
Bq         2.2487809457     1.4338807955     0.6631408100
Bq         2.2053530866     1.4486212507     0.9596146537
Bq         2.2632568988     1.4289673104     0.5643161954
Bq         2.1908771335     1.4535347358     1.0584392683
Bq         2.2777328518     1.4240538253     0.4654915808
Bq         2.1764011805     1.4584482209     1.1572638829
Bq         2.2922088049     1.4191403402     0.3666669662
Bq         2.1619252275     1.4633617060     1.2560884975
Bq         2.3066847579     1.4142268552     0.2678423516
Bq         2.2343049927     1.4387942806     0.7619654245
Bq         2.2205411736     1.5435869810     0.8559284344
Bq         2.2494930797     1.5337600109     0.6582792052
Bq         2.2060652205     1.5485004661     0.9547530489
Bq         2.2639690327     1.5288465258     0.5594545906
Bq         2.1915892675     1.5534139512     1.0535776635
Bq         2.2784449857     1.5239330407     0.4606299760
Bq         2.1771133144     1.5583274363     1.1524022781
Bq         2.2929209388     1.5190195556     0.3618053614
Bq         2.1626373614     1.5632409214     1.2512268927
Bq         2.3073968918     1.5141060705     0.2629807468
Bq         2.2350171266     1.5386734959     0.7571038198
Bq         2.2212533075     1.6434661964     0.8510668296
Bq         2.2502052136     1.6336392262     0.6534176004
Bq         2.2067773545     1.6483796815     0.9498914442
Bq         2.2646811666     1.6287257412     0.5545929858
Bq         2.1923014014     1.6532931666     1.0487160588
Bq         2.2791571197     1.6238122561     0.4557683713
Bq         2.1778254484     1.6582066517     1.1475406733
Bq         2.2936330727     1.6188987710     0.3569437567
Bq         2.1633494953     1.6631201367     1.2463652879
Bq         2.3081090258     1.6139852859     0.2581191421
Bq         2.2357292606     1.6385527113     0.7522422150
Bq         2.2219654415     1.7433454118     0.8462052248
Bq         2.2509173475     1.7335184416     0.6485559957
Bq         2.2074894884     1.7482588969     0.9450298394
Bq         2.2653933006     1.7286049565     0.5497313811
Bq         2.1930135354     1.7531723819     1.0438544540
Bq         2.2798692536     1.7236914715     0.4509067665
Bq         2.1785375823     1.7580858670     1.1426790686
Bq         2.2943452067     1.7187779864     0.3520821519
Bq         2.1640616293     1.7629993521     1.2415036832
Bq         2.3088211597     1.7138645013     0.2532575373
Bq         2.2364413945     1.7384319267     0.7473806102
Bq         2.2226775754     1.8432246272     0.8413436201
Bq         2.2516294815     1.8333976570     0.6436943909
Bq         2.2082016224     1.8481381122     0.9401682346
Bq         2.2661054345     1.8284841719     0.5448697763
Bq         2.1937256693     1.8530515973     1.0389928492
Bq         2.2805813876     1.8235706868     0.4460451617

1
2
3
4
5
6
7
8
9
10
11
12
13
14
15
16
17
18
19
20
21
22
23
24
25
26
27
28
29
30
31
32
33
34
35
36
37
38
39
40
41
42
43
44
45
46
47
48
49
50
51
52
53
54
55
56
57
58
59
60
61
62
63
64
65
66
67
68
69
70
71
72
73
74
75
76
77
78
79
80
81
82
83
84
85
86
87
88
89
90
91
92
93
94
95
96
97
98
99
100
101
102
103
104
105
106
107
108
109
110
111
112
113
114
115
116
117
118
119
120
121
122
123
124
125
126
127
128
129
130
131
132
133
134
135
136
137
138
139
140
141
142
143
144
145
146
147
148
149
150
151
152
153
154
155
156
157
158
159
160
161
162
163
164
165
166
167
168
169
170
171
172
173
174
175
176
177
178
179
180
181
182
183
184
185
186
187
188
189
190
191
192
193
194
195
196
197
198
199
200
201
202
203
204
205
206
207
208
209
210
211
212
213
214
215
216
217
218
219
220
221
222
223
224
225
226
227
228
229
230
231
232
233
234
235
236

