%nproc=8
%mem=1000MB
# rb3lyp/6-311+g** NMR geom=connectivity

Title

0 1
C    -4.0500558   -0.5771862    0.8136712
H    -5.0263804   -1.0082727    1.0024760
C    -3.9381552    0.6617804    0.2400876
H    -4.8252424    1.2338890   -0.0111295
C    -2.6768410    1.2433246    0.0057578
C    -1.4974121    0.5051527    0.2848253
C    -1.6508332   -0.7338728    0.9404026
H    -0.7713646   -1.2730967    1.2633753
C    -2.8898548   -1.2624035    1.1994307
H    -2.9683706   -2.2124563    1.7152676
C    -2.5773185    2.5963696   -0.4192930
H    -3.4870728    3.1412239   -0.6474055
C    -1.3741895    3.2147896   -0.4364030
H    -1.2997315    4.2742019   -0.6578144
C    -0.1719488    2.4994090   -0.1734588
C    -0.2043917    1.1018437    0.0192689
C     1.0513491    3.2042560   -0.0676222
H     1.0427344    4.2819499   -0.1896997
C     2.1942091    2.5487446    0.2579577
H     3.1168527    3.0912848    0.4334727
C     2.2216473    1.1336562    0.2934990
C     1.0486931    0.3945528    0.0302412
C     3.4483363    0.4614633    0.5573939
H     4.3095794    1.0606054    0.8334846
C     3.5427346   -0.8855926    0.4749463
H     4.4731467   -1.3939704    0.7038822
C     2.4490052   -1.6474447   -0.0196319
C     1.2150704   -1.0057258   -0.3013573
C     0.2531113   -1.7434440   -1.0216591
H    -0.6541356   -1.2535051   -1.3462847
C     0.4494193   -3.0628597   -1.3413779
H    -0.3083162   -3.5944309   -1.9054060
C     1.6251726   -3.7207967   -0.9552541
H     1.7670048   -4.7687404   -1.1927019
C     2.6109872   -3.0144177   -0.3183050
H     3.5525612   -3.4902813   -0.0646367
Bq         2.5148344090     1.6082617277     0.6070075711
Bq         2.2837246301     1.4802127964     1.4673515379
Bq         2.5405132733     1.6224893867     0.5114137970
Bq         2.4121189517     1.5513510915     0.9893826675
Bq         2.3827490368     1.6361061265     1.0987169811
Bq         2.4341067655     1.6645614446     0.9075294329
Bq         2.3570701725     1.6218784675     1.1943107552
Bq         2.4597856298     1.6787891036     0.8119356588
Bq         2.3313913082     1.6076508085     1.2899045293
Bq         2.4854644941     1.6930167627     0.7163418847
Bq         2.3057124439     1.5934231495     1.3854983034
Bq         2.5111433584     1.7072444217     0.6207481106
Bq         2.2800335795     1.5791954904     1.4810920775
Bq         2.5368222228     1.7214720807     0.5251543365
Bq         2.4084279012     1.6503337856     1.0031232070
Bq         2.3790579863     1.7350888206     1.1124575207
Bq         2.4304157149     1.7635441386     0.9212699725
Bq         2.3533791220     1.7208611616     1.2080512948
Bq         2.4560945793     1.7777717977     0.8256761984
Bq         2.3277002576     1.7066335025     1.3036450689
Bq         2.4817734436     1.7919994567     0.7300824243
Bq         2.3020213933     1.6924058435     1.3992388430
Bq         2.5074523079     1.8062271157     0.6344886502
Bq         2.2763425290     1.6781781845     1.4948326171
Bq         2.5331311722     1.8204547748     0.5388948761
Bq         2.4047368506     1.7493164796     1.0168637466
Bq         2.3753669358     1.8340715146     1.1261980602
Bq         2.4267246644     1.8625268327     0.9350105120
Bq         2.3496880714     1.8198438556     1.2217918343
Bq         2.4524035287     1.8767544917     0.8394167379
Bq         2.3240092071     1.8056161966     1.3173856084
Bq         2.4780823930     1.8909821507     0.7438229639
Bq         2.2983303428     1.7913885375     1.4129793825
Bq         2.5037612574     1.9052098098     0.6482291898
Bq         2.2726514785     1.7771608785     1.5085731566
Bq         2.5294401217     1.9194374688     0.5526354157
Bq         2.4010458001     1.8482991736     1.0306042861
Bq         2.3716758852     1.9330542087     1.1399385998
Bq         2.4230336139     1.9615095267     0.9487510516
Bq         2.3459970209     1.9188265496     1.2355323739
Bq         2.4487124782     1.9757371857     0.8531572775
Bq         2.3203181566     1.9045988906     1.3311261480
Bq         2.4743913425     1.9899648448     0.7575635034
Bq         2.2946392923     1.8903712316     1.4267199221
Bq         2.5000702068     2.0041925038     0.6619697293
Bq         2.2689604279     1.8761435725     1.5223136962
Bq         2.5257490712     2.0184201628     0.5663759552
Bq         2.3973547495     1.9472818677     1.0443448257
Bq         2.3679848347     2.0320369027     1.1536791393
Bq         2.4193425633     2.0604922207     0.9624915912
Bq         2.3423059704     2.0178092437     1.2492729134
Bq         2.4450214277     2.0747198798     0.8668978171
Bq         2.3166271060     2.0035815846     1.3448666875
Bq         2.4707002920     2.0889475388     0.7713040430
Bq         2.2909482417     1.9893539256     1.4404604616
Bq         2.4963791563     2.1031751978     0.6757102689
Bq         2.2652693774     1.9751262666     1.5360542357
Bq         2.5220580206     2.1174028569     0.5801164948
Bq         2.3936636990     2.0462645617     1.0580853653
Bq         2.3642937842     2.1310195967     1.1674196789
Bq         2.4156515128     2.1594749148     0.9762321307
Bq         2.3386149198     2.1167919377     1.2630134530
Bq         2.4413303771     2.1737025738     0.8806383566
Bq         2.3129360555     2.1025642787     1.3586072271
Bq         2.4670092414     2.1879302328     0.7850445825
Bq         2.2872571912     2.0883366196     1.4542010012
Bq         2.4926881058     2.2021578919     0.6894508084
Bq         2.2615783269     2.0741089606     1.5497947753
Bq         2.5183669701     2.2163855509     0.5938570343
Bq         2.3899726485     2.1452472558     1.0718259048
Bq         2.6454225610    -2.8181151051     0.5063354828
Bq         2.6967802896    -2.7896597870     0.3151479346
Bq         2.6197436966    -2.8323427641     0.6019292568
Bq         2.7224591539    -2.7754321280     0.2195541605
Bq         2.5940648323    -2.8465704231     0.6975230309
Bq         2.7481380183    -2.7612044690     0.1239603864
Bq         2.5683859680    -2.8607980821     0.7931168050
Bq         2.7738168826    -2.7469768099     0.0283666123
Bq         2.5427071037    -2.8750257412     0.8887105791
Bq         2.7994957469    -2.7327491509    -0.0672271618
Bq         2.6711014253    -2.8038874460     0.4107417087
Bq         2.6417315104    -2.7191324110     0.5200760223
Bq         2.6930892391    -2.6906770930     0.3288884741
Bq         2.6160526461    -2.7333600701     0.6156697964
Bq         2.7187681034    -2.6764494339     0.2332947000
Bq         2.5903737818    -2.7475877291     0.7112635705
Bq         2.7444469677    -2.6622217749     0.1377009259
Bq         2.5646949175    -2.7618153881     0.8068573446
Bq         2.7701258320    -2.6479941159     0.0421071518
Bq         2.5390160531    -2.7760430471     0.9024511187
Bq         2.7958046964    -2.6337664569    -0.0534866223
Bq         2.6674103748    -2.7049047520     0.4244822482
Bq         2.6380404599    -2.6201497170     0.5338165619
Bq         2.6893981885    -2.5916943989     0.3426290137
Bq         2.6123615956    -2.6343773760     0.6294103360
Bq         2.7150770529    -2.5774667399     0.2470352396
Bq         2.5866827313    -2.6486050350     0.7250041101
Bq         2.7407559172    -2.5632390809     0.1514414655
Bq         2.5610038669    -2.6628326941     0.8205978842
Bq         2.7664347815    -2.5490114219     0.0558476914
Bq         2.5353250026    -2.6770603531     0.9161916582
Bq         2.7921136458    -2.5347837628    -0.0397460827
Bq         2.6637193242    -2.6059220580     0.4382227878
Bq         2.6343494094    -2.5211670230     0.5475571014
Bq         2.6857071380    -2.4927117049     0.3563695532
Bq         2.6086705450    -2.5353946820     0.6431508755
Bq         2.7113860023    -2.4784840459     0.2607757791
Bq         2.5829916807    -2.5496223410     0.7387446496
Bq         2.7370648667    -2.4642563868     0.1651820050
Bq         2.5573128164    -2.5638500000     0.8343384237
Bq         2.7627437310    -2.4500287278     0.0695882310
Bq         2.5316339521    -2.5780776591     0.9299321978
Bq         2.7884225953    -2.4358010688    -0.0260055431
Bq         2.6600282737    -2.5069393639     0.4519633273
Bq         2.6306583588    -2.4221843289     0.5612976410
Bq         2.6820160875    -2.3937290109     0.3701100928
Bq         2.6049794945    -2.4364119879     0.6568914151
Bq         2.7076949518    -2.3795013518     0.2745163187
Bq         2.5793006302    -2.4506396470     0.7524851892
Bq         2.7333738161    -2.3652736928     0.1789225446
Bq         2.5536217659    -2.4648673060     0.8480789633
Bq         2.7590526804    -2.3510460338     0.0833287705
Bq         2.5279429015    -2.4790949650     0.9436727374
Bq         2.7847315448    -2.3368183748    -0.0122650036
Bq         2.6563372231    -2.4079566699     0.4657038669
Bq         2.6269673083    -2.3232016349     0.5750381805
Bq         2.6783250369    -2.2947463168     0.3838506324
Bq         2.6012884440    -2.3374292939     0.6706319546
Bq         2.7040039013    -2.2805186578     0.2882568583
Bq         2.5756095796    -2.3516569529     0.7662257287
Bq         2.7296827656    -2.2662909988     0.1926630842
Bq         2.5499307153    -2.3658846120     0.8618195028
Bq         2.7553616299    -2.2520633397     0.0970693101
Bq         2.5242518510    -2.3801122710     0.9574132769
Bq         2.7810404942    -2.2378356807     0.0014755360
Bq         2.6526461726    -2.3089739759     0.4794444065
Bq         2.6232762578    -2.2242189408     0.5887787201
Bq         2.6746339864    -2.1957636228     0.3975911719
Bq         2.5975973934    -2.2384465999     0.6843724942
Bq         2.7003128507    -2.1815359638     0.3019973978
Bq         2.5719185291    -2.2526742589     0.7799662683
Bq         2.7259917150    -2.1673083047     0.2064036237
Bq         2.5462396648    -2.2669019179     0.8755600424
Bq         2.7516705794    -2.1530806457     0.1108098496
Bq         2.5205608005    -2.2811295770     0.9711538165
Bq         2.7773494437    -2.1388529867     0.0152160755
Bq         2.6489551221    -2.2099912818     0.4931849460
Bq         2.6195852072    -2.1252362468     0.6025192597
Bq         2.6709429359    -2.0967809288     0.4113317115
Bq         2.5939063429    -2.1394639058     0.6981130338
Bq         2.6966218002    -2.0825532697     0.3157379374
Bq         2.5682274786    -2.1536915649     0.7937068079
Bq         2.7223006645    -2.0683256107     0.2201441633
Bq         2.5425486143    -2.1679192239     0.8893005819
Bq         2.7479795288    -2.0540979517     0.1245503892
Bq         2.5168697499    -2.1821468829     0.9848943560
Bq         2.7736583932    -2.0398702926     0.0289566151
Bq         2.6452640715    -2.1110085878     0.5069254856
Bq         2.6158941567    -2.0262535528     0.6162597992
Bq         2.6672518853    -1.9977982347     0.4250722510
Bq         2.5902152924    -2.0404812118     0.7118535733
Bq         2.6929307497    -1.9835705757     0.3294784769
Bq         2.5645364280    -2.0547088708     0.8074473474
Bq         2.7186096140    -1.9693429167     0.2338847028
Bq         2.5388575637    -2.0689365299     0.9030411215
Bq         2.7442884783    -1.9551152576     0.1382909287
Bq         2.5131786994    -2.0831641889     0.9986348956
Bq         2.7699673426    -1.9408875986     0.0426971547
Bq         2.6415730210    -2.0120258937     0.5206660251
Bq         2.6122031062    -1.9272708587     0.6300003388
Bq         2.6635608348    -1.8988155407     0.4388127906
Bq         2.5865242418    -1.9414985178     0.7255941129
Bq         2.6892396991    -1.8845878817     0.3432190165
Bq         2.5608453775    -1.9557261768     0.8211878870
Bq         2.7149185634    -1.8703602226     0.2476252424
Bq         2.5351665132    -1.9699538358     0.9167816611
Bq         2.7405974278    -1.8561325636     0.1520314683
Bq         2.5094876489    -1.9841814949     1.0123754352
Bq         2.7662762921    -1.8419049046     0.0564376942
Bq         2.6378819705    -1.9130431997     0.5344065647
Bq         2.6085120556    -1.8282881647     0.6437408783
Bq         2.6598697843    -1.7998328466     0.4525533302
Bq         2.5828331913    -1.8425158237     0.7393346524
Bq         2.6855486486    -1.7856051876     0.3569595561
Bq         2.5571543270    -1.8567434828     0.8349284265
Bq         2.7112275129    -1.7713775286     0.2613657820
Bq         2.5314754626    -1.8709711418     0.9305222006
Bq         2.7369063772    -1.7571498696     0.1657720079
Bq         2.5057965983    -1.8851988008     1.0261159747
Bq         2.7625852416    -1.7429222105     0.0701782338
Bq         2.6341909199    -1.8140605057     0.5481471042
Bq         2.6048210051    -1.7293054707     0.6574814179
Bq         2.6561787337    -1.7008501526     0.4662938697
Bq         2.5791421408    -1.7435331297     0.7530751920
Bq         2.6818575980    -1.6866224936     0.3707000956
Bq         2.5534632764    -1.7577607887     0.8486689661
Bq         2.7075364624    -1.6723948346     0.2751063215
Bq         2.5277844121    -1.7719884478     0.9442627402
Bq         2.7332153267    -1.6581671755     0.1795125474
Bq         2.5021055478    -1.7862161068     1.0398565143

1
2
3
4
5
6
7
8
9
10
11
12
13
14
15
16
17
18
19
20
21
22
23
24
25
26
27
28
29
30
31
32
33
34
35
36
37
38
39
40
41
42
43
44
45
46
47
48
49
50
51
52
53
54
55
56
57
58
59
60
61
62
63
64
65
66
67
68
69
70
71
72
73
74
75
76
77
78
79
80
81
82
83
84
85
86
87
88
89
90
91
92
93
94
95
96
97
98
99
100
101
102
103
104
105
106
107
108
109
110
111
112
113
114
115
116
117
118
119
120
121
122
123
124
125
126
127
128
129
130
131
132
133
134
135
136
137
138
139
140
141
142
143
144
145
146
147
148
149
150
151
152
153
154
155
156
157
158
159
160
161
162
163
164
165
166
167
168
169
170
171
172
173
174
175
176
177
178
179
180
181
182
183
184
185
186
187
188
189
190
191
192
193
194
195
196
197
198
199
200
201
202
203
204
205
206
207
208
209
210
211
212
213
214
215
216
217
218
219
220
221
222
223
224
225
226
227
228
229
230
231
232
233
234
235
236

