%nproc=8
%mem=1000MB
# rb3lyp/6-311+g** NMR geom=connectivity

Title

0 1
C    -4.0500558   -0.5771862    0.8136712
H    -5.0263804   -1.0082727    1.0024760
C    -3.9381552    0.6617804    0.2400876
H    -4.8252424    1.2338890   -0.0111295
C    -2.6768410    1.2433246    0.0057578
C    -1.4974121    0.5051527    0.2848253
C    -1.6508332   -0.7338728    0.9404026
H    -0.7713646   -1.2730967    1.2633753
C    -2.8898548   -1.2624035    1.1994307
H    -2.9683706   -2.2124563    1.7152676
C    -2.5773185    2.5963696   -0.4192930
H    -3.4870728    3.1412239   -0.6474055
C    -1.3741895    3.2147896   -0.4364030
H    -1.2997315    4.2742019   -0.6578144
C    -0.1719488    2.4994090   -0.1734588
C    -0.2043917    1.1018437    0.0192689
C     1.0513491    3.2042560   -0.0676222
H     1.0427344    4.2819499   -0.1896997
C     2.1942091    2.5487446    0.2579577
H     3.1168527    3.0912848    0.4334727
C     2.2216473    1.1336562    0.2934990
C     1.0486931    0.3945528    0.0302412
C     3.4483363    0.4614633    0.5573939
H     4.3095794    1.0606054    0.8334846
C     3.5427346   -0.8855926    0.4749463
H     4.4731467   -1.3939704    0.7038822
C     2.4490052   -1.6474447   -0.0196319
C     1.2150704   -1.0057258   -0.3013573
C     0.2531113   -1.7434440   -1.0216591
H    -0.6541356   -1.2535051   -1.3462847
C     0.4494193   -3.0628597   -1.3413779
H    -0.3083162   -3.5944309   -1.9054060
C     1.6251726   -3.7207967   -0.9552541
H     1.7670048   -4.7687404   -1.1927019
C     2.6109872   -3.0144177   -0.3183050
H     3.5525612   -3.4902813   -0.0646367
Bq         0.2175668786    -0.6774626391     0.3254762682
Bq         0.5364609889    -0.4645374302    -0.3766415295
Bq         0.1777051148    -0.7040782902     0.4132409929
Bq         0.5763227527    -0.4379217791    -0.4644062542
Bq         0.3770139338    -0.5710000346    -0.0255826307
Bq         0.3261456966    -0.5012227030     0.0864153445
Bq         0.4058692242    -0.4479914008    -0.0891141049
Bq         0.2862839328    -0.5278383541     0.1741800692
Bq         0.4457309880    -0.4213757497    -0.1768788296
Bq         0.2464221690    -0.5544540052     0.2619447939
Bq         0.4855927517    -0.3947600986    -0.2646435544
Bq         0.2065604052    -0.5810696563     0.3497095186
Bq         0.5254545155    -0.3681444475    -0.3524082791
Bq         0.1666986414    -0.6076853074     0.4374742433
Bq         0.5653162793    -0.3415287964    -0.4401730038
Bq         0.3660074604    -0.4746070519    -0.0013493802
Bq         0.3151392232    -0.4048297203     0.1106485950
Bq         0.3948627508    -0.3515984181    -0.0648808545
Bq         0.2752774594    -0.4314453714     0.1984133197
Bq         0.4347245146    -0.3249827670    -0.1526455792
Bq         0.2354156957    -0.4580610225     0.2861780444
Bq         0.4745862784    -0.2983671159    -0.2404103039
Bq         0.1955539319    -0.4846766736     0.3739427691
Bq         0.5144480422    -0.2717514648    -0.3281750286
Bq         0.1556921681    -0.5112923247     0.4617074938
Bq         0.5543098060    -0.2451358137    -0.4159397533
Bq         0.3550009870    -0.3782140692     0.0228838702
Bq         0.3041327499    -0.3084367376     0.1348818454
Bq         0.3838562774    -0.2552054354    -0.0406476040
Bq         0.2642709861    -0.3350523887     0.2226465701
Bq         0.4237180412    -0.2285897843    -0.1284123287
Bq         0.2244092223    -0.3616680398     0.3104112948
Bq         0.4635798050    -0.2019741332    -0.2161770534
Bq         0.1845474585    -0.3882836909     0.3981760196
Bq         0.5034415688    -0.1753584821    -0.3039417782
Bq         0.1446856947    -0.4148993420     0.4859407443
Bq         0.5433033326    -0.1487428310    -0.3917065029
Bq         0.3439945136    -0.2818210865     0.0471171207
Bq         0.2931262765    -0.2120437549     0.1591150959
Bq         0.3728498041    -0.1588124527    -0.0164143536
Bq         0.2532645127    -0.2386594060     0.2468798206
Bq         0.4127115678    -0.1321968016    -0.1041790783
Bq         0.2134027489    -0.2652750571     0.3346445453
Bq         0.4525733316    -0.1055811505    -0.1919438030
Bq         0.1735409851    -0.2918907082     0.4224092700
Bq         0.4924350954    -0.0789654993    -0.2797085277
Bq         0.1336792213    -0.3185063593     0.5101739947
Bq         0.5322968592    -0.0523498482    -0.3674732524
Bq         0.3329880403    -0.1854281038     0.0713503712
Bq         0.2821198031    -0.1156507722     0.1833483463
Bq         0.3618433307    -0.0624194700     0.0078188969
Bq         0.2422580393    -0.1422664233     0.2711130710
Bq         0.4017050945    -0.0358038189    -0.0799458278
Bq         0.2023962755    -0.1688820744     0.3588777958
Bq         0.4415668583    -0.0091881677    -0.1677105525
Bq         0.1625345117    -0.1954977255     0.4466425205
Bq         0.4814286220     0.0174274834    -0.2554752772
Bq         0.1226727480    -0.2221133766     0.5344072452
Bq         0.5212903858     0.0440431345    -0.3432400019
Bq         0.3219815669    -0.0890351211     0.0955836216
Bq         0.9234923450    -4.9352999078    -0.9869607889
Bq         1.0032158726    -4.8820686056    -1.1624902384
Bq         0.8836305812    -4.9619155589    -0.8991960642
Bq         1.0430776364    -4.8554529545    -1.2502549631
Bq         0.8437688175    -4.9885312100    -0.8114313395
Bq         1.0829394002    -4.8288373034    -1.3380196878
Bq         0.8039070537    -5.0151468611    -0.7236666148
Bq         1.1228011640    -4.8022216522    -1.4257844125
Bq         0.7640452899    -5.0417625122    -0.6359018901
Bq         1.1626629278    -4.7756060011    -1.5135491372
Bq         0.9633541088    -4.9086842567    -1.0747255137
Bq         0.9124858717    -4.8389069251    -0.9627275385
Bq         0.9922093992    -4.7856756229    -1.1382569879
Bq         0.8726241079    -4.8655225762    -0.8749628138
Bq         1.0320711630    -4.7590599717    -1.2260217126
Bq         0.8327623441    -4.8921382273    -0.7871980891
Bq         1.0719329268    -4.7324443206    -1.3137864373
Bq         0.7929005803    -4.9187538784    -0.6994333643
Bq         1.1117946906    -4.7058286695    -1.4015511620
Bq         0.7530388165    -4.9453695295    -0.6116686396
Bq         1.1516564544    -4.6792130184    -1.4893158868
Bq         0.9523476354    -4.8122912740    -1.0504922632
Bq         0.9014793983    -4.7425139424    -0.9384942880
Bq         0.9812029259    -4.6892826401    -1.1140237375
Bq         0.8616176345    -4.7691295935    -0.8507295633
Bq         1.0210646896    -4.6626669890    -1.2017884622
Bq         0.8217558707    -4.7957452446    -0.7629648386
Bq         1.0609264534    -4.6360513379    -1.2895531869
Bq         0.7818941069    -4.8223608957    -0.6752001139
Bq         1.1007882172    -4.6094356868    -1.3773179116
Bq         0.7420323431    -4.8489765468    -0.5874353892
Bq         1.1406499810    -4.5828200357    -1.4650826363
Bq         0.9413411621    -4.7158982912    -1.0262590127
Bq         0.8904729249    -4.6461209596    -0.9142610376
Bq         0.9701964525    -4.5928896574    -1.0897904870
Bq         0.8506111611    -4.6727366108    -0.8264963129
Bq         1.0100582163    -4.5662740063    -1.1775552117
Bq         0.8107493973    -4.6993522619    -0.7387315881
Bq         1.0499199801    -4.5396583552    -1.2653199364
Bq         0.7708876336    -4.7259679130    -0.6509668634
Bq         1.0897817439    -4.5130427041    -1.3530846611
Bq         0.7310258698    -4.7525835641    -0.5632021387
Bq         1.1296435076    -4.4864270530    -1.4408493858
Bq         0.9303346887    -4.6195053085    -1.0020257623
Bq         0.8794664515    -4.5497279769    -0.8900277871
Bq         0.9591899791    -4.4964966747    -1.0655572365
Bq         0.8396046878    -4.5763436280    -0.8022630624
Bq         0.9990517429    -4.4698810236    -1.1533219613
Bq         0.7997429240    -4.6029592791    -0.7144983377
Bq         1.0389135067    -4.4432653725    -1.2410866860
Bq         0.7598811602    -4.6295749303    -0.6267336130
Bq         1.0787752705    -4.4166497214    -1.3288514107
Bq         0.7200193964    -4.6561905814    -0.5389688883
Bq         1.1186370343    -4.3900340703    -1.4166161354
Bq         0.9193282153    -4.5231123258    -0.9777925118
Bq         0.8684599782    -4.4533349942    -0.8657945367
Bq         0.9481835057    -4.4001036920    -1.0413239861
Bq         0.8285982144    -4.4799506453    -0.7780298119
Bq         0.9880452695    -4.3734880409    -1.1290887108
Bq         0.7887364506    -4.5065662964    -0.6902650872
Bq         1.0279070333    -4.3468723898    -1.2168534355
Bq         0.7488746868    -4.5331819475    -0.6025003625
Bq         1.0677687971    -4.3202567387    -1.3046181602
Bq         0.7090129230    -4.5597975986    -0.5147356378
Bq         1.1076305609    -4.2936410876    -1.3923828849
Bq         0.9083217420    -4.4267193431    -0.9535592614
Bq         0.8574535048    -4.3569420115    -0.8415612862
Bq         0.9371770324    -4.3037107093    -1.0170907356
Bq         0.8175917410    -4.3835576626    -0.7537965615
Bq         0.9770387962    -4.2770950582    -1.1048554603
Bq         0.7777299772    -4.4101733137    -0.6660318368
Bq         1.0169005599    -4.2504794071    -1.1926201850
Bq         0.7378682134    -4.4367889648    -0.5782671121
Bq         1.0567623237    -4.2238637560    -1.2803849098
Bq         0.6980064496    -4.4634046159    -0.4905023873
Bq         1.0966240875    -4.1972481049    -1.3681496345
Bq         0.8973152686    -4.3303263604    -0.9293260109
Bq         0.8464470314    -4.2605490288    -0.8173280357
Bq         0.9261705590    -4.2073177266    -0.9928574852
Bq         0.8065852676    -4.2871646799    -0.7295633110
Bq         0.9660323228    -4.1807020755    -1.0806222099
Bq         0.7667235039    -4.3137803310    -0.6417985863
Bq         1.0058940866    -4.1540864244    -1.1683869346
Bq         0.7268617401    -4.3403959821    -0.5540338616
Bq         1.0457558504    -4.1274707733    -1.2561516593
Bq         0.6869999763    -4.3670116332    -0.4662691369
Bq         1.0856176142    -4.1008551222    -1.3439163840
Bq         0.8863087952    -4.2339333777    -0.9050927605
Bq         0.8354405581    -4.1641560461    -0.7930947853
Bq         0.9151640856    -4.1109247439    -0.9686242347
Bq         0.7955787943    -4.1907716972    -0.7053300606
Bq         0.9550258494    -4.0843090928    -1.0563889594
Bq         0.7557170305    -4.2173873483    -0.6175653359
Bq         0.9948876132    -4.0576934417    -1.1441536841
Bq         0.7158552667    -4.2440029994    -0.5298006111
Bq         1.0347493770    -4.0310777905    -1.2319184088
Bq         0.6759935029    -4.2706186505    -0.4420358864
Bq         1.0746111408    -4.0044621394    -1.3196831336
Bq         0.8753023218    -4.1375403950    -0.8808595100
Bq         0.8244340847    -4.0677630634    -0.7688615348
Bq         0.9041576123    -4.0145317612    -0.9443909842
Bq         0.7845723209    -4.0943787145    -0.6810968101
Bq         0.9440193760    -3.9879161100    -1.0321557090
Bq         0.7447105571    -4.1209943656    -0.5933320854
Bq         0.9838811398    -3.9613004589    -1.1199204337
Bq         0.7048487933    -4.1476100167    -0.5055673607
Bq         1.0237429036    -3.9346848078    -1.2076851584
Bq         0.6649870295    -4.1742256678    -0.4178026360
Bq         1.0636046674    -3.9080691567    -1.2954498831
Bq         0.8642958485    -4.0411474123    -0.8566262595
Bq         0.8134276113    -3.9713700807    -0.7446282844
Bq         0.8931511389    -3.9181387784    -0.9201577338
Bq         0.7735658475    -3.9979857318    -0.6568635597
Bq         0.9330129027    -3.8915231273    -1.0079224585
Bq         0.7337040837    -4.0246013829    -0.5690988349
Bq         0.9728746665    -3.8649074762    -1.0956871832
Bq         0.6938423199    -4.0512170340    -0.4813341102
Bq         1.0127364302    -3.8382918251    -1.1834519079
Bq         0.6539805562    -4.0778326851    -0.3935693855
Bq         1.0525981940    -3.8116761740    -1.2712166326
Bq         0.8532893751    -3.9447544296    -0.8323930091
Bq         0.8024211379    -3.8749770979    -0.7203950339
Bq         0.8821446655    -3.8217457957    -0.8959244833
Bq         0.7625593741    -3.9015927491    -0.6326303092
Bq         0.9220064293    -3.7951301446    -0.9836892080
Bq         0.7226976104    -3.9282084002    -0.5448655845
Bq         0.9618681931    -3.7685144935    -1.0714539328
Bq         0.6828358466    -3.9548240513    -0.4571008598
Bq         1.0017299569    -3.7418988424    -1.1592186575
Bq         0.6429740828    -3.9814397024    -0.3693361351
Bq         1.0415917207    -3.7152831913    -1.2469833822
Bq         0.8422829017    -3.8483614468    -0.8081597586
Bq         0.7914146646    -3.7785841152    -0.6961617834
Bq         0.8711381921    -3.7253528130    -0.8716912329
Bq         0.7515529008    -3.8051997663    -0.6083970587
Bq         0.9109999559    -3.6987371619    -0.9594559576
Bq         0.7116911370    -3.8318154174    -0.5206323340
Bq         0.9508617197    -3.6721215108    -1.0472206823
Bq         0.6718293732    -3.8584310686    -0.4328676093
Bq         0.9907234835    -3.6455058597    -1.1349854070

1
2
3
4
5
6
7
8
9
10
11
12
13
14
15
16
17
18
19
20
21
22
23
24
25
26
27
28
29
30
31
32
33
34
35
36
37
38
39
40
41
42
43
44
45
46
47
48
49
50
51
52
53
54
55
56
57
58
59
60
61
62
63
64
65
66
67
68
69
70
71
72
73
74
75
76
77
78
79
80
81
82
83
84
85
86
87
88
89
90
91
92
93
94
95
96
97
98
99
100
101
102
103
104
105
106
107
108
109
110
111
112
113
114
115
116
117
118
119
120
121
122
123
124
125
126
127
128
129
130
131
132
133
134
135
136
137
138
139
140
141
142
143
144
145
146
147
148
149
150
151
152
153
154
155
156
157
158
159
160
161
162
163
164
165
166
167
168
169
170
171
172
173
174
175
176
177
178
179
180
181
182
183
184
185
186
187
188
189
190
191
192
193
194
195
196
197
198
199
200
201
202
203
204
205
206
207
208
209
210
211
212
213
214
215
216
217
218
219
220
221
222
223
224
225
226
227
228
229
230
231
232
233
234
235
236

