%nproc=8
%mem=1000MB
# rb3lyp/6-311+g** NMR geom=connectivity

Title

0 1
C    -4.0500558   -0.5771862    0.8136712
H    -5.0263804   -1.0082727    1.0024760
C    -3.9381552    0.6617804    0.2400876
H    -4.8252424    1.2338890   -0.0111295
C    -2.6768410    1.2433246    0.0057578
C    -1.4974121    0.5051527    0.2848253
C    -1.6508332   -0.7338728    0.9404026
H    -0.7713646   -1.2730967    1.2633753
C    -2.8898548   -1.2624035    1.1994307
H    -2.9683706   -2.2124563    1.7152676
C    -2.5773185    2.5963696   -0.4192930
H    -3.4870728    3.1412239   -0.6474055
C    -1.3741895    3.2147896   -0.4364030
H    -1.2997315    4.2742019   -0.6578144
C    -0.1719488    2.4994090   -0.1734588
C    -0.2043917    1.1018437    0.0192689
C     1.0513491    3.2042560   -0.0676222
H     1.0427344    4.2819499   -0.1896997
C     2.1942091    2.5487446    0.2579577
H     3.1168527    3.0912848    0.4334727
C     2.2216473    1.1336562    0.2934990
C     1.0486931    0.3945528    0.0302412
C     3.4483363    0.4614633    0.5573939
H     4.3095794    1.0606054    0.8334846
C     3.5427346   -0.8855926    0.4749463
H     4.4731467   -1.3939704    0.7038822
C     2.4490052   -1.6474447   -0.0196319
C     1.2150704   -1.0057258   -0.3013573
C     0.2531113   -1.7434440   -1.0216591
H    -0.6541356   -1.2535051   -1.3462847
C     0.4494193   -3.0628597   -1.3413779
H    -0.3083162   -3.5944309   -1.9054060
C     1.6251726   -3.7207967   -0.9552541
H     1.7670048   -4.7687404   -1.1927019
C     2.6109872   -3.0144177   -0.3183050
H     3.5525612   -3.4902813   -0.0646367
Bq        -2.2884038340    -0.5798529907     1.7378907718
Bq        -2.2862798605    -0.8407492927     1.1975865905
Bq        -2.2887578295    -0.5363702737     1.8279414686
Bq        -2.2859258649    -0.8842320097     1.1075358936
Bq        -2.2891118251    -0.4928875567     1.9179921655
Bq        -2.2855718694    -0.9277147267     1.0174851967
Bq        -2.2873418472    -0.7103011417     1.4677386811
Bq        -2.2875249105    -0.5767670320     1.5143069970
Bq        -2.2868169194    -0.6637324660     1.3342056032
Bq        -2.2878789061    -0.5332843150     1.6043576938
Bq        -2.2864629238    -0.7072151830     1.2441549063
Bq        -2.2882329017    -0.4898015980     1.6944083907
Bq        -2.2861089282    -0.7506979000     1.1541042094
Bq        -2.2885868973    -0.4463188810     1.7844590876
Bq        -2.2857549327    -0.7941806170     1.0640535126
Bq        -2.2889408928    -0.4028361640     1.8745097845
Bq        -2.2854009371    -0.8376633340     0.9740028157
Bq        -2.2871709150    -0.6202497490     1.4242563001
Bq        -2.2873539783    -0.4867156393     1.4708246159
Bq        -2.2866459871    -0.5736810733     1.2907232222
Bq        -2.2877079738    -0.4432329223     1.5608753128
Bq        -2.2862919915    -0.6171637904     1.2006725253
Bq        -2.2880619694    -0.3997502053     1.6509260097
Bq        -2.2859379960    -0.6606465074     1.1106218284
Bq        -2.2884159650    -0.3562674883     1.7409767066
Bq        -2.2855840004    -0.7041292244     1.0205711315
Bq        -2.2887699606    -0.3127847713     1.8310274035
Bq        -2.2852300048    -0.7476119414     0.9305204346
Bq        -2.2869999827    -0.5301983563     1.3807739191
Bq        -2.2871830460    -0.3966642467     1.4273422349
Bq        -2.2864750548    -0.4836296807     1.2472408411
Bq        -2.2875370416    -0.3531815297     1.5173929318
Bq        -2.2861210593    -0.5271123977     1.1571901443
Bq        -2.2878910371    -0.3096988127     1.6074436287
Bq        -2.2857670637    -0.5705951147     1.0671394474
Bq        -2.2882450327    -0.2662160957     1.6974943255
Bq        -2.2854130681    -0.6140778317     0.9770887505
Bq        -2.2885990283    -0.2227333786     1.7875450224
Bq        -2.2850590725    -0.6575605487     0.8870380536
Bq        -2.2868290504    -0.4401469637     1.3372915380
Bq        -2.2870121137    -0.3066128540     1.3838598539
Bq        -2.2863041226    -0.3935782880     1.2037584601
Bq        -2.2873661093    -0.2631301370     1.4739105508
Bq        -2.2859501270    -0.4370610050     1.1137077632
Bq        -2.2877201049    -0.2196474200     1.5639612476
Bq        -2.2855961314    -0.4805437220     1.0236570663
Bq        -2.2880741004    -0.1761647030     1.6540119445
Bq        -2.2852421358    -0.5240264390     0.9336063695
Bq        -2.2884280960    -0.1326819860     1.7440626414
Bq        -2.2848881403    -0.5675091560     0.8435556726
Bq        -2.2866581181    -0.3500955710     1.2938091570
Bq        -2.2868411814    -0.2165614613     1.3403774728
Bq        -2.2861331903    -0.3035268953     1.1602760791
Bq        -2.2871951770    -0.1730787443     1.4304281697
Bq        -2.2857791947    -0.3470096123     1.0702253822
Bq        -2.2875491726    -0.1295960273     1.5204788666
Bq        -2.2854251991    -0.3904923293     0.9801746853
Bq        -2.2879031682    -0.0861133103     1.6105295635
Bq        -2.2850712036    -0.4339750463     0.8901239884
Bq        -2.2882571637    -0.0426305933     1.7005802604
Bq        -2.2847172080    -0.4774577634     0.8000732915
Bq        -2.2864871859    -0.2600441783     1.2503267760
Bq        -2.2866702492    -0.1265100687     1.2968950918
Bq        -2.2859622580    -0.2134755027     1.1167936980
Bq        -2.2870242447    -0.0830273517     1.3869457887
Bq        -2.2856082624    -0.2569582197     1.0267430012
Bq        -2.2873782403    -0.0395446346     1.4769964856
Bq        -2.2852542669    -0.3004409367     0.9366923043
Bq        -2.2877322359     0.0039380824     1.5670471825
Bq        -2.2849002713    -0.3439236537     0.8466416074
Bq        -2.2880862315     0.0474207994     1.6570978793
Bq        -2.2845462757    -0.3874063707     0.7565909105
Bq        -2.2863162536    -0.1699927857     1.2068443949
Bq        -2.2864993169    -0.0364586760     1.2534127108
Bq        -2.2857913257    -0.1234241100     1.0733113170
Bq        -2.2868533125     0.0070240410     1.3434634077
Bq        -2.2854373302    -0.1669068270     0.9832606201
Bq        -2.2872073080     0.0505067580     1.4335141045
Bq        -2.2850833346    -0.2103895440     0.8932099232
Bq        -2.2875613036     0.0939894750     1.5235648014
Bq        -2.2847293390    -0.2538722610     0.8031592264
Bq        -2.2879152992     0.1374721920     1.6136154983
Bq        -2.2843753434    -0.2973549780     0.7131085295
Bq        -2.2861453213    -0.0799413930     1.1633620139
Bq        -2.2863283846     0.0535927167     1.2099303297
Bq        -2.2856203935    -0.0333727173     1.0298289360
Bq        -2.2866823802     0.0970754337     1.2999810266
Bq        -2.2852663979    -0.0768554343     0.9397782391
Bq        -2.2870363758     0.1405581507     1.3900317235
Bq        -2.2849124023    -0.1203381513     0.8497275422
Bq        -2.2873903713     0.1840408677     1.4800824204
Bq        -2.2845584067    -0.1638208683     0.7596768453
Bq        -2.2877443669     0.2275235847     1.5701331173
Bq        -2.2842044112    -0.2073035853     0.6696261484
Bq        -2.2859743890     0.0101099997     1.1198796329
Bq        -2.2861574523     0.1436441094     1.1664479487
Bq        -2.2854494612     0.0566786753     0.9863465549
Bq        -2.2865114479     0.1871268264     1.2564986456
Bq        -2.2850954656     0.0131959583     0.8962958581
Bq        -2.2868654435     0.2306095434     1.3465493425
Bq        -2.2847414700    -0.0302867587     0.8062451612
Bq        -2.2872194391     0.2740922604     1.4366000394
Bq        -2.2843874745    -0.0737694757     0.7161944643
Bq        -2.2875734346     0.3175749774     1.5266507362
Bq        -2.2840334789    -0.1172521927     0.6261437674
Bq        -2.2858034568     0.1001613924     1.0763972518
Bq        -2.2859865201     0.2336955020     1.1229655677
Bq        -2.2852785289     0.1467300680     0.9428641739
Bq        -2.2863405156     0.2771782190     1.2130162646
Bq        -2.2849245333     0.1032473510     0.8528134770
Bq        -2.2866945112     0.3206609360     1.3030669614
Bq        -2.2845705378     0.0597646340     0.7627627801
Bq        -2.2870485068     0.3641436530     1.3931176583
Bq        -2.2842165422     0.0162819170     0.6727120833
Bq        -2.2874025024     0.4076263700     1.4831683552
Bq        -2.2838625466    -0.0272008000     0.5826613864
Bq        -2.2856325245     0.1902127850     1.0329148708
Bq        -2.2858155878     0.3237468947     1.0794831866
Bq        -2.2851075966     0.2367814607     0.8993817929
Bq        -2.2861695834     0.3672296117     1.1695338835
Bq        -2.2847536011     0.1932987437     0.8093310960
Bq        -2.2865235789     0.4107123287     1.2595845804
Bq        -2.2843996055     0.1498160267     0.7192803991
Bq        -2.2868775745     0.4541950457     1.3496352773
Bq        -2.2840456099     0.1063333097     0.6292297022
Bq        -2.2872315701     0.4976777627     1.4396859742
Bq        -2.2836916143     0.0628505927     0.5391790053
Bq        -2.2854615922     0.2802641777     0.9894324898
Bq        -2.2856446555     0.4137982874     1.0360008056
Bq        -2.2849366644     0.3268328534     0.8558994118
Bq        -2.2859986511     0.4572810044     1.1260515025
Bq        -2.2845826688     0.2833501364     0.7658487150
Bq        -2.2863526467     0.5007637214     1.2161021994
Bq        -2.2842286732     0.2398674194     0.6757980181
Bq        -2.2867066422     0.5442464384     1.3061528963
Bq        -2.2838746776     0.1963847023     0.5857473212
Bq        -2.2870606378     0.5877291554     1.3962035931
Bq        -2.2835206821     0.1529019853     0.4956966243
Bq        -2.2852906599     0.3703155704     0.9459501087
Bq        -2.2854737232     0.5038496800     0.9925184246
Bq        -2.2847657321     0.4168842460     0.8124170308
Bq        -2.2858277188     0.5473323970     1.0825691215
Bq        -2.2844117365     0.3734015290     0.7223663339
Bq        -2.2861817144     0.5908151140     1.1726198183
Bq        -2.2840577409     0.3299188120     0.6323156370
Bq        -2.2865357100     0.6342978311     1.2626705152
Bq        -2.2837037454     0.2864360950     0.5422649402
Bq        -2.2868897055     0.6777805481     1.3527212121
Bq        -2.2833497498     0.2429533780     0.4522142433
Bq        -2.2851197277     0.4603669630     0.9024677277
Bq        -2.2853027910     0.5939010727     0.9490360435
Bq        -2.2845947998     0.5069356387     0.7689346498
Bq        -2.2856567865     0.6373837897     1.0390867404
Bq        -2.2842408042     0.4634529217     0.6788839529
Bq        -2.2860107821     0.6808665067     1.1291374373
Bq        -2.2838868087     0.4199702047     0.5888332560
Bq        -2.2863647777     0.7243492237     1.2191881342
Bq        -2.2835328131     0.3764874877     0.4987825591
Bq        -2.2867187733     0.7678319407     1.3092388311
Bq        -2.2831788175     0.3330047707     0.4087318622
Bq        -2.2849487954     0.5504183557     0.8589853467
Bq        -2.2851318587     0.6839524654     0.9055536625
Bq        -2.2844238675     0.5969870314     0.7254522687
Bq        -2.2854858543     0.7274351824     0.9956043594
Bq        -2.2840698720     0.5535043144     0.6354015719
Bq        -2.2858398498     0.7709178994     1.0856550563
Bq        -2.2837158764     0.5100215974     0.5453508750
Bq        -2.2861938454     0.8144006164     1.1757057532
Bq        -2.2833618808     0.4665388804     0.4553001781
Bq        -2.2865478410     0.8578833334     1.2657564500
Bq        -2.2830078852     0.4230561634     0.3652494812
Bq        -2.2847778631     0.6404697484     0.8155029656
Bq        -2.2849609264     0.7740038581     0.8620712815
Bq        -2.2842529353     0.6870384240     0.6819698877
Bq        -2.2853149220     0.8174865751     0.9521219784
Bq        -2.2838989397     0.6435557070     0.5919191908
Bq        -2.2856689176     0.8609692921     1.0421726752
Bq        -2.2835449441     0.6000729900     0.5018684939
Bq        -2.2860229131     0.9044520091     1.1322233721
Bq        -2.2831909485     0.5565902730     0.4118177971
Bq        -2.2863769087     0.9479347261     1.2222740690
Bq        -2.2828369530     0.5131075560     0.3217671002
Bq        -2.2846069308     0.7305211410     0.7720205846
Bq        -2.2847899941     0.8640552507     0.8185889004
Bq        -2.2840820030     0.7770898167     0.6384875067
Bq        -2.2851439897     0.9075379677     0.9086395973
Bq        -2.2837280074     0.7336070997     0.5484368098
Bq        -2.2854979853     0.9510206847     0.9986902942
Bq        -2.2833740118     0.6901243827     0.4583861129
Bq        -2.2858519809     0.9945034017     1.0887409911
Bq        -2.2830200163     0.6466416657     0.3683354160
Bq        -2.2862059764     1.0379861187     1.1787916880
Bq        -2.2826660207     0.6031589487     0.2782847192
Bq        -2.2844359986     0.8205725337     0.7285382036
Bq        -2.2846190619     0.9541066434     0.7751065194
Bq        -2.2839110707     0.8671412094     0.5950051256
Bq        -2.2849730574     0.9975893604     0.8651572163
Bq        -2.2835570751     0.8236584924     0.5049544288
Bq        -2.2853270530     1.0410720774     0.9552079132
Bq        -2.2832030796     0.7801757754     0.4149037319

1
2
3
4
5
6
7
8
9
10
11
12
13
14
15
16
17
18
19
20
21
22
23
24
25
26
27
28
29
30
31
32
33
34
35
36
37
38
39
40
41
42
43
44
45
46
47
48
49
50
51
52
53
54
55
56
57
58
59
60
61
62
63
64
65
66
67
68
69
70
71
72
73
74
75
76
77
78
79
80
81
82
83
84
85
86
87
88
89
90
91
92
93
94
95
96
97
98
99
100
101
102
103
104
105
106
107
108
109
110
111
112
113
114
115
116
117
118
119
120
121
122
123
124
125
126
127
128
129
130
131
132
133
134
135
136
137
138
139
140
141
142
143
144
145
146
147
148
149
150
151
152
153
154
155
156
157
158
159
160
161
162
163
164
165
166
167
168
169
170
171
172
173
174
175
176
177
178
179
180
181
182
183
184
185
186
187
188
189
190
191
192
193
194
195
196
197
198
199
200
201
202
203
204
205
206
207
208
209
210
211
212
213
214
215
216
217
218
219
220
221
222
223
224
225
226
227
228
229
230
231
232
233
234
235
236

