%nproc=8
%mem=1000MB
# rb3lyp/6-311+g** NMR geom=connectivity

Title

0 1
C    -4.0500558   -0.5771862    0.8136712
H    -5.0263804   -1.0082727    1.0024760
C    -3.9381552    0.6617804    0.2400876
H    -4.8252424    1.2338890   -0.0111295
C    -2.6768410    1.2433246    0.0057578
C    -1.4974121    0.5051527    0.2848253
C    -1.6508332   -0.7338728    0.9404026
H    -0.7713646   -1.2730967    1.2633753
C    -2.8898548   -1.2624035    1.1994307
H    -2.9683706   -2.2124563    1.7152676
C    -2.5773185    2.5963696   -0.4192930
H    -3.4870728    3.1412239   -0.6474055
C    -1.3741895    3.2147896   -0.4364030
H    -1.2997315    4.2742019   -0.6578144
C    -0.1719488    2.4994090   -0.1734588
C    -0.2043917    1.1018437    0.0192689
C     1.0513491    3.2042560   -0.0676222
H     1.0427344    4.2819499   -0.1896997
C     2.1942091    2.5487446    0.2579577
H     3.1168527    3.0912848    0.4334727
C     2.2216473    1.1336562    0.2934990
C     1.0486931    0.3945528    0.0302412
C     3.4483363    0.4614633    0.5573939
H     4.3095794    1.0606054    0.8334846
C     3.5427346   -0.8855926    0.4749463
H     4.4731467   -1.3939704    0.7038822
C     2.4490052   -1.6474447   -0.0196319
C     1.2150704   -1.0057258   -0.3013573
C     0.2531113   -1.7434440   -1.0216591
H    -0.6541356   -1.2535051   -1.3462847
C     0.4494193   -3.0628597   -1.3413779
H    -0.3083162   -3.5944309   -1.9054060
C     1.6251726   -3.7207967   -0.9552541
H     1.7670048   -4.7687404   -1.1927019
C     2.6109872   -3.0144177   -0.3183050
H     3.5525612   -3.4902813   -0.0646367
Bq        -0.3071539201     1.7286049565     0.1729014493
Bq        -0.3795336853     1.7531723819     0.6670245222
Bq        -0.2926779670     1.7236914715     0.0740768347
Bq        -0.3940096383     1.7580858670     0.7658491368
Bq        -0.2782020140     1.7187779864    -0.0247477799
Bq        -0.4084855914     1.7629993521     0.8646737514
Bq        -0.2637260609     1.7138645013    -0.1235723944
Bq        -0.3361058262     1.7384319267     0.3705506785
Bq        -0.3498696453     1.8432246272     0.4645136883
Bq        -0.3209177392     1.8333976570     0.2668644591
Bq        -0.3643455983     1.8481381122     0.5633383029
Bq        -0.3064417861     1.8284841719     0.1680398445
Bq        -0.3788215514     1.8530515973     0.6621629175
Bq        -0.2919658331     1.8235706868     0.0692152300
Bq        -0.3932975044     1.8579650824     0.7609875320
Bq        -0.2774898800     1.8186572017    -0.0296093846
Bq        -0.4077734574     1.8628785675     0.8598121466
Bq        -0.2630139270     1.8137437167    -0.1284339992
Bq        -0.3353936922     1.8383111421     0.3656890737
Bq        -0.3491575113     1.9431038425     0.4596520835
Bq        -0.3202056052     1.9332768724     0.2620028544
Bq        -0.3636334644     1.9480173276     0.5584766981
Bq        -0.3057296522     1.9283633873     0.1631782398
Bq        -0.3781094174     1.9529308127     0.6573013127
Bq        -0.2912536991     1.9234499022     0.0643536252
Bq        -0.3925853705     1.9578442978     0.7561259273
Bq        -0.2767777461     1.9185364171    -0.0344709894
Bq        -0.4070613235     1.9627577829     0.8549505419
Bq        -0.2623017931     1.9136229320    -0.1332956040
Bq        -0.3346815583     1.9381903575     0.3608274689
Bq        -0.3484453774     2.0429830579     0.4547904788
Bq        -0.3194934713     2.0331560878     0.2571412496
Bq        -0.3629213304     2.0478965430     0.5536150933
Bq        -0.3050175182     2.0282426027     0.1583166350
Bq        -0.3773972835     2.0528100281     0.6524397079
Bq        -0.2905415652     2.0233291176     0.0594920204
Bq        -0.3918732365     2.0577235132     0.7512643225
Bq        -0.2760656122     2.0184156325    -0.0393325942
Bq        -0.4063491896     2.0626369982     0.8500889371
Bq        -0.2615896591     2.0135021474    -0.1381572087
Bq        -0.3339694243     2.0380695728     0.3559658642
Bq        -0.3477332434     2.1428622733     0.4499288740
Bq        -0.3187813373     2.1330353031     0.2522796448
Bq        -0.3622091965     2.1477757584     0.5487534886
Bq        -0.3043053843     2.1281218180     0.1534550302
Bq        -0.3766851495     2.1526892435     0.6475781032
Bq        -0.2898294313     2.1232083330     0.0546304157
Bq        -0.3911611026     2.1576027285     0.7464027177
Bq        -0.2753534782     2.1182948479    -0.0441941989
Bq        -0.4056370556     2.1625162136     0.8452273323
Bq        -0.2608775252     2.1133813628    -0.1430188135
Bq        -0.3332572904     2.1379487882     0.3511042594
Bq        -0.3470211095     2.2427414887     0.4450672692
Bq        -0.3180692034     2.2329145185     0.2474180401
Bq        -0.3614970625     2.2476549738     0.5438918838
Bq        -0.3035932504     2.2280010334     0.1485934255
Bq        -0.3759730156     2.2525684588     0.6427164984
Bq        -0.2891172973     2.2230875483     0.0497688109
Bq        -0.3904489686     2.2574819439     0.7415411130
Bq        -0.2746413443     2.2181740633    -0.0490558037
Bq        -0.4049249217     2.2623954290     0.8403657276
Bq        -0.2601653912     2.2132605782    -0.1478804183
Bq        -0.3325451565     2.2378280036     0.3462426546
Bq        -0.3463089756     2.3426207040     0.4402056645
Bq        -0.3173570695     2.3327937339     0.2425564353
Bq        -0.3607849286     2.3475341891     0.5390302790
Bq        -0.3028811164     2.3278802488     0.1437318207
Bq        -0.3752608816     2.3524476742     0.6378548936
Bq        -0.2884051634     2.3229667637     0.0449072061
Bq        -0.3897368347     2.3573611593     0.7366795082
Bq        -0.2739292103     2.3180532786    -0.0539174085
Bq        -0.4042127877     2.3622746444     0.8355041228
Bq        -0.2594532573     2.3131397936    -0.1527420230
Bq        -0.3318330225     2.3377072190     0.3413810499
Bq        -0.3455968416     2.4424999194     0.4353440597
Bq        -0.3166449355     2.4326729493     0.2376948305
Bq        -0.3600727947     2.4474134045     0.5341686743
Bq        -0.3021689825     2.4277594642     0.1388702159
Bq        -0.3745487477     2.4523268896     0.6329932889
Bq        -0.2876930294     2.4228459791     0.0400456014
Bq        -0.3890247007     2.4572403747     0.7318179034
Bq        -0.2732170764     2.4179324940    -0.0587790132
Bq        -0.4035006538     2.4621538598     0.8306425180
Bq        -0.2587411233     2.4130190089    -0.1576036278
Bq        -0.3311208886     2.4375864343     0.3365194451
Bq        -0.3448847077     2.5423791348     0.4304824549
Bq        -0.3159328016     2.5325521646     0.2328332258
Bq        -0.3593606607     2.5472926199     0.5293070695
Bq        -0.3014568485     2.5276386796     0.1340086112
Bq        -0.3738366138     2.5522061050     0.6281316841
Bq        -0.2869808955     2.5227251945     0.0351839966
Bq        -0.3883125668     2.5571195900     0.7269562987
Bq        -0.2725049424     2.5178117094    -0.0636406180
Bq        -0.4027885198     2.5620330751     0.8257809133
Bq        -0.2580289894     2.5128982243    -0.1624652326
Bq        -0.3304087546     2.5374656497     0.3316578403
Bq        -0.3441725737     2.6422583502     0.4256208502
Bq        -0.3152206676     2.6324313800     0.2279716210
Bq        -0.3586485268     2.6471718353     0.5244454647
Bq        -0.3007447146     2.6275178949     0.1291470064
Bq        -0.3731244798     2.6520853203     0.6232700793
Bq        -0.2862687616     2.6226044098     0.0303223918
Bq        -0.3876004329     2.6569988054     0.7220946939
Bq        -0.2717928085     2.6176909248    -0.0685022228
Bq        -0.4020763859     2.6619122905     0.8209193085
Bq        -0.2573168555     2.6127774397    -0.1673268373
Bq        -0.3296966207     2.6373448651     0.3267962356
Bq        -0.3434604398     2.7421375656     0.4207592454
Bq        -0.3145085337     2.7323105954     0.2231100162
Bq        -0.3579363928     2.7470510506     0.5195838600
Bq        -0.3000325807     2.7273971103     0.1242854016
Bq        -0.3724123459     2.7519645357     0.6184084746
Bq        -0.2855566276     2.7224836252     0.0254607871
Bq        -0.3868882989     2.7568780208     0.7172330891
Bq        -0.2710806746     2.7175701401    -0.0733638275
Bq        -0.4013642520     2.7617915059     0.8160577037
Bq        -0.2566047215     2.7126566551    -0.1721884421
Bq        -0.3289844867     2.7372240805     0.3219346308
Bq        -0.3427483058     2.8420167809     0.4158976406
Bq        -0.3137963998     2.8321898108     0.2182484115
Bq        -0.3572242589     2.8469302660     0.5147222552
Bq        -0.2993204467     2.8272763257     0.1194237969
Bq        -0.3717002119     2.8518437511     0.6135468698
Bq        -0.2848444937     2.8223628406     0.0205991823
Bq        -0.3861761650     2.8567572362     0.7123714844
Bq        -0.2703685406     2.8174493555    -0.0782254323
Bq        -0.4006521180     2.8616707213     0.8111960990
Bq        -0.2558925876     2.8125358704    -0.1770500469
Bq        -0.3282723528     2.8371032959     0.3170730260
Bq        -0.3420361719     2.9418959963     0.4110360359
Bq        -0.3130842658     2.9320690261     0.2133868067
Bq        -0.3565121249     2.9468094814     0.5098606504
Bq        -0.2986083128     2.9271555411     0.1145621921
Bq        -0.3709880780     2.9517229665     0.6086852650
Bq        -0.2841323597     2.9222420560     0.0157375775
Bq        -0.3854640310     2.9566364516     0.7075098796
Bq        -0.2696564067     2.9173285709    -0.0830870371
Bq        -0.3999399841     2.9615499366     0.8063344942
Bq        -0.2551804536     2.9124150858    -0.1819116516
Bq        -0.3275602189     2.9369825112     0.3122114213
Bq        -0.3413240380     3.0417752117     0.4061744311
Bq        -0.3123721319     3.0319482415     0.2085252019
Bq        -0.3557999910     3.0466886968     0.5049990457
Bq        -0.2978961788     3.0270347564     0.1097005873
Bq        -0.3702759441     3.0516021819     0.6038236603
Bq        -0.2834202258     3.0221212714     0.0108759728
Bq        -0.3847518971     3.0565156669     0.7026482748
Bq        -0.2689442727     3.0172077863    -0.0879486418
Bq        -0.3992278501     3.0614291520     0.8014728894
Bq        -0.2544683197     3.0122943012    -0.1867732564
Bq        -0.3268480849     3.0368617266     0.3073498165
Bq        -0.3406119040     3.1416544271     0.4013128263
Bq        -0.3116599979     3.1318274569     0.2036635972
Bq        -0.3550878571     3.1465679121     0.5001374409
Bq        -0.2971840449     3.1269139718     0.1048389826
Bq        -0.3695638101     3.1514813972     0.5989620555
Bq        -0.2827080918     3.1220004867     0.0060143680
Bq        -0.3840397632     3.1563948823     0.6977866701
Bq        -0.2682321388     3.1170870017    -0.0928102466
Bq        -0.3985157162     3.1613083674     0.7966112847
Bq        -0.2537561858     3.1121735166    -0.1916348612
Bq        -0.3261359510     3.1367409420     0.3024882117
Bq        -0.3398997701     3.2415336424     0.3964512216
Bq        -0.3109478640     3.2317066723     0.1988019924
Bq        -0.3543757231     3.2464471275     0.4952758361
Bq        -0.2964719109     3.2267931872     0.0999773778
Bq        -0.3688516762     3.2513606126     0.5941004507
Bq        -0.2819959579     3.2218797021     0.0011527632
Bq        -0.3833276292     3.2562740977     0.6929250653
Bq        -0.2675200049     3.2169662170    -0.0976718514
Bq        -0.3978035823     3.2611875828     0.7917496799
Bq        -0.2530440518     3.2120527319    -0.1964964659
Bq        -0.3254238170     3.2366201574     0.2976266070
Bq        -0.3391876361     3.3414128578     0.3915896168
Bq        -0.3102357300     3.3315858877     0.1939403876
Bq        -0.3536635892     3.3463263429     0.4904142314
Bq        -0.2957597770     3.3266724026     0.0951157730
Bq        -0.3681395422     3.3512398280     0.5892388460
Bq        -0.2812838240     3.3217589175    -0.0037088415
Bq        -0.3826154953     3.3561533131     0.6880634605
Bq        -0.2668078709     3.3168454324    -0.1025334561
Bq        -0.3970914483     3.3610667981     0.7868880751
Bq        -0.2523319179     3.3119319473    -0.2013580707
Bq        -0.3247116831     3.3364993727     0.2927650022
Bq        -0.3384755022     3.4412920732     0.3867280120
Bq        -0.3095235961     3.4314651030     0.1890787829
Bq        -0.3529514552     3.4462055583     0.4855526266
Bq        -0.2950476431     3.4265516179     0.0902541683
Bq        -0.3674274083     3.4511190434     0.5843772412
Bq        -0.2805716900     3.4216381329    -0.0085704463
Bq        -0.3819033613     3.4560325284     0.6832018558
Bq        -0.2660957370     3.4167246478    -0.1073950609
Bq        -0.3963793144     3.4609460135     0.7820264704
Bq        -0.2516197839     3.4118111627    -0.2062196755
Bq        -0.3239995492     3.4363785881     0.2879033974
Bq        -0.3377633683     3.5411712886     0.3818664073
Bq        -0.3088114622     3.5313443184     0.1842171781
Bq        -0.3522393213     3.5460847737     0.4806910218
Bq        -0.2943355091     3.5264308333     0.0853925635
Bq        -0.3667152743     3.5509982587     0.5795156364

1
2
3
4
5
6
7
8
9
10
11
12
13
14
15
16
17
18
19
20
21
22
23
24
25
26
27
28
29
30
31
32
33
34
35
36
37
38
39
40
41
42
43
44
45
46
47
48
49
50
51
52
53
54
55
56
57
58
59
60
61
62
63
64
65
66
67
68
69
70
71
72
73
74
75
76
77
78
79
80
81
82
83
84
85
86
87
88
89
90
91
92
93
94
95
96
97
98
99
100
101
102
103
104
105
106
107
108
109
110
111
112
113
114
115
116
117
118
119
120
121
122
123
124
125
126
127
128
129
130
131
132
133
134
135
136
137
138
139
140
141
142
143
144
145
146
147
148
149
150
151
152
153
154
155
156
157
158
159
160
161
162
163
164
165
166
167
168
169
170
171
172
173
174
175
176
177
178
179
180
181
182
183
184
185
186
187
188
189
190
191
192
193
194
195
196
197
198
199
200
201
202
203
204
205
206
207
208
209
210
211
212
213
214
215
216
217
218
219
220
221
222
223
224
225
226
227
228
229
230
231
232
233
234
235
236

