%nproc=8
%mem=1000MB
# rb3lyp/6-311+g** NMR geom=connectivity

Title

0 1
C    -4.0500558   -0.5771862    0.8136712
H    -5.0263804   -1.0082727    1.0024760
C    -3.9381552    0.6617804    0.2400876
H    -4.8252424    1.2338890   -0.0111295
C    -2.6768410    1.2433246    0.0057578
C    -1.4974121    0.5051527    0.2848253
C    -1.6508332   -0.7338728    0.9404026
H    -0.7713646   -1.2730967    1.2633753
C    -2.8898548   -1.2624035    1.1994307
H    -2.9683706   -2.2124563    1.7152676
C    -2.5773185    2.5963696   -0.4192930
H    -3.4870728    3.1412239   -0.6474055
C    -1.3741895    3.2147896   -0.4364030
H    -1.2997315    4.2742019   -0.6578144
C    -0.1719488    2.4994090   -0.1734588
C    -0.2043917    1.1018437    0.0192689
C     1.0513491    3.2042560   -0.0676222
H     1.0427344    4.2819499   -0.1896997
C     2.1942091    2.5487446    0.2579577
H     3.1168527    3.0912848    0.4334727
C     2.2216473    1.1336562    0.2934990
C     1.0486931    0.3945528    0.0302412
C     3.4483363    0.4614633    0.5573939
H     4.3095794    1.0606054    0.8334846
C     3.5427346   -0.8855926    0.4749463
H     4.4731467   -1.3939704    0.7038822
C     2.4490052   -1.6474447   -0.0196319
C     1.2150704   -1.0057258   -0.3013573
C     0.2531113   -1.7434440   -1.0216591
H    -0.6541356   -1.2535051   -1.3462847
C     0.4494193   -3.0628597   -1.3413779
H    -0.3083162   -3.5944309   -1.9054060
C     1.6251726   -3.7207967   -0.9552541
H     1.7670048   -4.7687404   -1.1927019
C     2.6109872   -3.0144177   -0.3183050
H     3.5525612   -3.4902813   -0.0646367
Bq        -0.6397244124     2.1043839362     0.4684742900
Bq        -0.6320404498     2.0552853014     0.2747469538
Bq        -0.6435663937     2.1289332536     0.5653379581
Bq        -0.6281984684     2.0307359841     0.1778832858
Bq        -0.6474083751     2.1534825709     0.6622016262
Bq        -0.6243564871     2.0061866667     0.0810196177
Bq        -0.6512503564     2.1780318883     0.7590652943
Bq        -0.6205145058     1.9816373493    -0.0158440504
Bq        -0.6550923377     2.2025812057     0.8559289624
Bq        -0.6166725244     1.9570880319    -0.1127077185
Bq        -0.6358824311     2.0798346188     0.3716106219
Bq        -0.6387514582     2.2013237681     0.4439442606
Bq        -0.6310674955     2.1522251334     0.2502169244
Bq        -0.6425934395     2.2258730855     0.5408079287
Bq        -0.6272255142     2.1276758160     0.1533532563
Bq        -0.6464354209     2.2504224029     0.6376715968
Bq        -0.6233835329     2.1031264986     0.0564895882
Bq        -0.6502774022     2.2749717203     0.7345352649
Bq        -0.6195415516     2.0785771813    -0.0403740799
Bq        -0.6541193835     2.2995210376     0.8313989330
Bq        -0.6156995702     2.0540278639    -0.1372377479
Bq        -0.6349094769     2.1767744508     0.3470805925
Bq        -0.6377785040     2.2982636001     0.4194142312
Bq        -0.6300945413     2.2491649653     0.2256868950
Bq        -0.6416204853     2.3228129174     0.5162778993
Bq        -0.6262525600     2.2246156479     0.1288232269
Bq        -0.6454624666     2.3473622348     0.6131415674
Bq        -0.6224105787     2.2000663306     0.0319595588
Bq        -0.6493044480     2.3719115522     0.7100052354
Bq        -0.6185685973     2.1755170132    -0.0649041093
Bq        -0.6531464293     2.3964608696     0.8068689035
Bq        -0.6147266160     2.1509676958    -0.1617677774
Bq        -0.6339365226     2.2737142827     0.3225505631
Bq        -0.6368055497     2.3952034320     0.3948842017
Bq        -0.6291215871     2.3461047973     0.2011568656
Bq        -0.6406475311     2.4197527494     0.4917478698
Bq        -0.6252796058     2.3215554799     0.1042931975
Bq        -0.6444895124     2.4443020668     0.5886115379
Bq        -0.6214376244     2.2970061625     0.0074295294
Bq        -0.6483314937     2.4688513841     0.6854752060
Bq        -0.6175956431     2.2724568451    -0.0894341387
Bq        -0.6521734751     2.4934007015     0.7823388741
Bq        -0.6137536618     2.2479075278    -0.1862978068
Bq        -0.6329635684     2.3706541146     0.2980205337
Bq        -0.6358325955     2.4921432640     0.3703541723
Bq        -0.6281486329     2.4430446292     0.1766268361
Bq        -0.6396745769     2.5166925813     0.4672178404
Bq        -0.6243066515     2.4184953118     0.0797631680
Bq        -0.6435165582     2.5412418987     0.5640815085
Bq        -0.6204646702     2.3939459944    -0.0171005000
Bq        -0.6473585395     2.5657912161     0.6609451766
Bq        -0.6166226889     2.3693966771    -0.1139641681
Bq        -0.6512005208     2.5903405335     0.7578088447
Bq        -0.6127807075     2.3448473597    -0.2108278362
Bq        -0.6319906142     2.4675939466     0.2734905042
Bq        -0.6348596413     2.5890830959     0.3458241429
Bq        -0.6271756786     2.5399844611     0.1520968067
Bq        -0.6387016226     2.6136324133     0.4426878110
Bq        -0.6233336973     2.5154351438     0.0552331386
Bq        -0.6425436040     2.6381817306     0.5395514791
Bq        -0.6194917160     2.4908858264    -0.0416305295
Bq        -0.6463855853     2.6627310480     0.6364151472
Bq        -0.6156497347     2.4663365090    -0.1384941976
Bq        -0.6502275666     2.6872803654     0.7332788152
Bq        -0.6118077533     2.4417871916    -0.2353578657
Bq        -0.6310176600     2.5645337785     0.2489604748
Bq        -0.6338866871     2.6860229278     0.3212941135
Bq        -0.6262027244     2.6369242931     0.1275667773
Bq        -0.6377286684     2.7105722452     0.4181577816
Bq        -0.6223607431     2.6123749757     0.0307031092
Bq        -0.6415706497     2.7351215626     0.5150214496
Bq        -0.6185187618     2.5878256583    -0.0661605589
Bq        -0.6454126311     2.7596708800     0.6118851177
Bq        -0.6146767804     2.5632763409    -0.1630242270
Bq        -0.6492546124     2.7842201973     0.7087487858
Bq        -0.6108347991     2.5387270236    -0.2598878951
Bq        -0.6300447057     2.6614736105     0.2244304454
Bq        -0.6329137328     2.7829627598     0.2967640840
Bq        -0.6252297702     2.7338641250     0.1030367479
Bq        -0.6367557142     2.8075120771     0.3936277521
Bq        -0.6213877889     2.7093148076     0.0061730798
Bq        -0.6405976955     2.8320613945     0.4904914202
Bq        -0.6175458075     2.6847654903    -0.0906905883
Bq        -0.6444396768     2.8566107119     0.5873550883
Bq        -0.6137038262     2.6602161729    -0.1875542564
Bq        -0.6482816582     2.8811600293     0.6842187564
Bq        -0.6098618449     2.6356668555    -0.2844179245
Bq        -0.6290717515     2.7584134424     0.1999004159
Bq        -0.6319407786     2.8799025917     0.2722340546
Bq        -0.6242568160     2.8308039570     0.0785067184
Bq        -0.6357827600     2.9044519091     0.3690977227
Bq        -0.6204148346     2.8062546396    -0.0183569497
Bq        -0.6396247413     2.9290012265     0.4659613908
Bq        -0.6165728533     2.7817053222    -0.1152206178
Bq        -0.6434667226     2.9535505438     0.5628250589
Bq        -0.6127308720     2.7571560048    -0.2120842858
Bq        -0.6473087039     2.9780998612     0.6596887270
Bq        -0.6088888906     2.7326066875    -0.3089479539
Bq        -0.6280987973     2.8553532743     0.1753703865
Bq        -0.6309678244     2.9768424236     0.2477040252
Bq        -0.6232838617     2.9277437889     0.0539766890
Bq        -0.6348098057     3.0013917410     0.3445676933
Bq        -0.6194418804     2.9031944715    -0.0428869791
Bq        -0.6386517871     3.0259410584     0.4414313614
Bq        -0.6155998991     2.8786451541    -0.1397506472
Bq        -0.6424937684     3.0504903758     0.5382950295
Bq        -0.6117579178     2.8540958368    -0.2366143153
Bq        -0.6463357497     3.0750396931     0.6351586975
Bq        -0.6079159364     2.8295465194    -0.3334779834
Bq        -0.6271258431     2.9522931063     0.1508403571
Bq        -0.6299948702     3.0737822556     0.2231739958
Bq        -0.6223109075     3.0246836208     0.0294466596
Bq        -0.6338368515     3.0983315730     0.3200376638
Bq        -0.6184689262     3.0001343035    -0.0674170085
Bq        -0.6376788328     3.1228808903     0.4169013319
Bq        -0.6146269449     2.9755849861    -0.1642806766
Bq        -0.6415208142     3.1474302077     0.5137650000
Bq        -0.6107849635     2.9510356687    -0.2611443447
Bq        -0.6453627955     3.1719795251     0.6106286681
Bq        -0.6069429822     2.9264863513    -0.3580080128
Bq        -0.6261528888     3.0492329382     0.1263103277
Bq        -0.6290219160     3.1707220875     0.1986439663
Bq        -0.6213379533     3.1216234528     0.0049166301
Bq        -0.6328638973     3.1952714049     0.2955076344
Bq        -0.6174959720     3.0970741354    -0.0919470379
Bq        -0.6367058786     3.2198207223     0.3923713025
Bq        -0.6136539906     3.0725248180    -0.1888107060
Bq        -0.6405478599     3.2443700397     0.4892349706
Bq        -0.6098120093     3.0479755006    -0.2856743741
Bq        -0.6443898413     3.2689193570     0.5860986387
Bq        -0.6059700280     3.0234261833    -0.3825380422
Bq        -0.6251799346     3.1461727701     0.1017802982
Bq        -0.6280489617     3.2676619195     0.1741139369
Bq        -0.6203649991     3.2185632847    -0.0196133993
Bq        -0.6318909431     3.2922112368     0.2709776050
Bq        -0.6165230177     3.1940139673    -0.1164770674
Bq        -0.6357329244     3.3167605542     0.3678412731
Bq        -0.6126810364     3.1694646500    -0.2133407355
Bq        -0.6395749057     3.3413098716     0.4647049412
Bq        -0.6088390551     3.1449153326    -0.3102044036
Bq        -0.6434168870     3.3658591890     0.5615686093
Bq        -0.6049970738     3.1203660152    -0.4070680716
Bq        -0.6242069804     3.2431126021     0.0772502688
Bq        -0.6270760075     3.3646017514     0.1495839075
Bq        -0.6193920448     3.3155031167    -0.0441434287
Bq        -0.6309179888     3.3891510688     0.2464475756
Bq        -0.6155500635     3.2909537993    -0.1410070968
Bq        -0.6347599702     3.4137003862     0.3433112437
Bq        -0.6117080822     3.2664044819    -0.2378707649
Bq        -0.6386019515     3.4382497035     0.4401749117
Bq        -0.6078661009     3.2418551645    -0.3347344330
Bq        -0.6424439328     3.4627990209     0.5370385798
Bq        -0.6040241195     3.2173058471    -0.4315981011
Bq        -0.6232340262     3.3400524340     0.0527202394
Bq        -0.6261030533     3.4615415833     0.1250538780
Bq        -0.6184190906     3.4124429486    -0.0686734581
Bq        -0.6299450346     3.4860909007     0.2219175461
Bq        -0.6145771093     3.3878936312    -0.1655371262
Bq        -0.6337870159     3.5106402181     0.3187812142
Bq        -0.6107351280     3.3633443138    -0.2624007943
Bq        -0.6376289973     3.5351895355     0.4156448823
Bq        -0.6068931466     3.3387949965    -0.3592644624
Bq        -0.6414709786     3.5597388528     0.5125085504
Bq        -0.6030511653     3.3142456791    -0.4561281305
Bq        -0.6222610719     3.4369922660     0.0281902100
Bq        -0.6251300991     3.5584814153     0.1005238486
Bq        -0.6174461364     3.5093827805    -0.0932034876
Bq        -0.6289720804     3.5830307327     0.1973875167
Bq        -0.6136041551     3.4848334632    -0.1900671557
Bq        -0.6328140617     3.6075800500     0.2942511848
Bq        -0.6097621737     3.4602841458    -0.2869308237
Bq        -0.6366560430     3.6321293674     0.3911148529
Bq        -0.6059201924     3.4357348284    -0.3837944918
Bq        -0.6404980244     3.6566786848     0.4879785210
Bq        -0.6020782111     3.4111855110    -0.4806581599
Bq        -0.6212881177     3.5339320979     0.0036601805
Bq        -0.6241571448     3.6554212472     0.0759938192
Bq        -0.6164731822     3.6063226125    -0.1177335170
Bq        -0.6279991262     3.6799705646     0.1728574873
Bq        -0.6126312008     3.5817732951    -0.2145971851
Bq        -0.6318411075     3.7045198820     0.2697211554
Bq        -0.6087892195     3.5572239777    -0.3114608532
Bq        -0.6356830888     3.7290691993     0.3665848235
Bq        -0.6049472382     3.5326746603    -0.4083245213
Bq        -0.6395250701     3.7536185167     0.4634484916
Bq        -0.6011052569     3.5081253430    -0.5051881893
Bq        -0.6203151635     3.6308719298    -0.0208698489
Bq        -0.6231841906     3.7523610792     0.0514637898
Bq        -0.6155002279     3.7032624444    -0.1422635464
Bq        -0.6270261719     3.7769103965     0.1483274579
Bq        -0.6116582466     3.6787131270    -0.2391272145
Bq        -0.6308681533     3.8014597139     0.2451911259
Bq        -0.6078162653     3.6541638097    -0.3359908826
Bq        -0.6347101346     3.8260090313     0.3420547940
Bq        -0.6039742840     3.6296144923    -0.4328545507
Bq        -0.6385521159     3.8505583487     0.4389184621
Bq        -0.6001323026     3.6050651749    -0.5297182188
Bq        -0.6193422093     3.7278117618    -0.0453998783
Bq        -0.6222112364     3.8493009111     0.0269337603
Bq        -0.6145272737     3.8002022763    -0.1667935758

1
2
3
4
5
6
7
8
9
10
11
12
13
14
15
16
17
18
19
20
21
22
23
24
25
26
27
28
29
30
31
32
33
34
35
36
37
38
39
40
41
42
43
44
45
46
47
48
49
50
51
52
53
54
55
56
57
58
59
60
61
62
63
64
65
66
67
68
69
70
71
72
73
74
75
76
77
78
79
80
81
82
83
84
85
86
87
88
89
90
91
92
93
94
95
96
97
98
99
100
101
102
103
104
105
106
107
108
109
110
111
112
113
114
115
116
117
118
119
120
121
122
123
124
125
126
127
128
129
130
131
132
133
134
135
136
137
138
139
140
141
142
143
144
145
146
147
148
149
150
151
152
153
154
155
156
157
158
159
160
161
162
163
164
165
166
167
168
169
170
171
172
173
174
175
176
177
178
179
180
181
182
183
184
185
186
187
188
189
190
191
192
193
194
195
196
197
198
199
200
201
202
203
204
205
206
207
208
209
210
211
212
213
214
215
216
217
218
219
220
221
222
223
224
225
226
227
228
229
230
231
232
233
234
235
236

