%nproc=8
%mem=1000MB
# rb3lyp/6-311+g** NMR geom=connectivity

Title

0 1
C    -4.0500558   -0.5771862    0.8136712
H    -5.0263804   -1.0082727    1.0024760
C    -3.9381552    0.6617804    0.2400876
H    -4.8252424    1.2338890   -0.0111295
C    -2.6768410    1.2433246    0.0057578
C    -1.4974121    0.5051527    0.2848253
C    -1.6508332   -0.7338728    0.9404026
H    -0.7713646   -1.2730967    1.2633753
C    -2.8898548   -1.2624035    1.1994307
H    -2.9683706   -2.2124563    1.7152676
C    -2.5773185    2.5963696   -0.4192930
H    -3.4870728    3.1412239   -0.6474055
C    -1.3741895    3.2147896   -0.4364030
H    -1.2997315    4.2742019   -0.6578144
C    -0.1719488    2.4994090   -0.1734588
C    -0.2043917    1.1018437    0.0192689
C     1.0513491    3.2042560   -0.0676222
H     1.0427344    4.2819499   -0.1896997
C     2.1942091    2.5487446    0.2579577
H     3.1168527    3.0912848    0.4334727
C     2.2216473    1.1336562    0.2934990
C     1.0486931    0.3945528    0.0302412
C     3.4483363    0.4614633    0.5573939
H     4.3095794    1.0606054    0.8334846
C     3.5427346   -0.8855926    0.4749463
H     4.4731467   -1.3939704    0.7038822
C     2.4490052   -1.6474447   -0.0196319
C     1.2150704   -1.0057258   -0.3013573
C     0.2531113   -1.7434440   -1.0216591
H    -0.6541356   -1.2535051   -1.3462847
C     0.4494193   -3.0628597   -1.3413779
H    -0.3083162   -3.5944309   -1.9054060
C     1.6251726   -3.7207967   -0.9552541
H     1.7670048   -4.7687404   -1.1927019
C     2.6109872   -3.0144177   -0.3183050
H     3.5525612   -3.4902813   -0.0646367
Bq         1.4484103829    -4.6561905814    -0.2081417872
Bq         1.8470280208    -4.3900340703    -1.0857890344
Bq         1.6477192018    -4.5231123258    -0.6469654108
Bq         1.5968509647    -4.4533349942    -0.5349674356
Bq         1.6765744923    -4.4001036920    -0.7104968851
Bq         1.5569892009    -4.4799506453    -0.4472027109
Bq         1.7164362560    -4.3734880409    -0.7982616098
Bq         1.5171274371    -4.5065662964    -0.3594379862
Bq         1.7562980198    -4.3468723898    -0.8860263345
Bq         1.4772656733    -4.5331819475    -0.2716732615
Bq         1.7961597836    -4.3202567387    -0.9737910592
Bq         1.4374039095    -4.5597975986    -0.1839085368
Bq         1.8360215474    -4.2936410876    -1.0615557839
Bq         1.6367127285    -4.4267193431    -0.6227321603
Bq         1.5858444913    -4.3569420115    -0.5107341852
Bq         1.6655680189    -4.3037107093    -0.6862636346
Bq         1.5459827275    -4.3835576626    -0.4229694605
Bq         1.7054297827    -4.2770950582    -0.7740283593
Bq         1.5061209637    -4.4101733137    -0.3352047357
Bq         1.7452915465    -4.2504794071    -0.8617930840
Bq         1.4662591999    -4.4367889648    -0.2474400110
Bq         1.7851533102    -4.2238637560    -0.9495578087
Bq         1.4263974362    -4.4634046159    -0.1596752863
Bq         1.8250150740    -4.1972481049    -1.0373225334
Bq         1.6257062551    -4.3303263604    -0.5984989099
Bq         1.5748380179    -4.2605490288    -0.4865009347
Bq         1.6545615455    -4.2073177266    -0.6620303841
Bq         1.5349762541    -4.2871646799    -0.3987362100
Bq         1.6944233093    -4.1807020755    -0.7497951088
Bq         1.4951144904    -4.3137803310    -0.3109714853
Bq         1.7342850731    -4.1540864244    -0.8375598336
Bq         1.4552527266    -4.3403959821    -0.2232067606
Bq         1.7741468369    -4.1274707733    -0.9253245583
Bq         1.4153909628    -4.3670116332    -0.1354420359
Bq         1.8140086007    -4.1008551222    -1.0130892830
Bq         1.6146997817    -4.2339333777    -0.5742656594
Bq         1.5638315446    -4.1641560461    -0.4622676843
Bq         1.6435550721    -4.1109247439    -0.6377971337
Bq         1.5239697808    -4.1907716972    -0.3745029595
Bq         1.6834168359    -4.0843090928    -0.7255618584
Bq         1.4841080170    -4.2173873483    -0.2867382348
Bq         1.7232785997    -4.0576934417    -0.8133265831
Bq         1.4442462532    -4.2440029994    -0.1989735101
Bq         1.7631403635    -4.0310777905    -0.9010913078
Bq         1.4043844894    -4.2706186505    -0.1112087854
Bq         1.8030021273    -4.0044621394    -0.9888560325
Bq         1.6036933083    -4.1375403950    -0.5500324090
Bq         1.5528250712    -4.0677630634    -0.4380344338
Bq         1.6325485988    -4.0145317612    -0.6135638832
Bq         1.5129633074    -4.0943787145    -0.3502697091
Bq         1.6724103626    -3.9879161100    -0.7013286079
Bq         1.4731015436    -4.1209943656    -0.2625049844
Bq         1.7122721263    -3.9613004589    -0.7890933326
Bq         1.4332397798    -4.1476100167    -0.1747402597
Bq         1.7521338901    -3.9346848078    -0.8768580574
Bq         1.3933780160    -4.1742256678    -0.0869755349
Bq         1.7919956539    -3.9080691567    -0.9646227821
Bq         1.5926868350    -4.0411474123    -0.5257991585
Bq         1.5418185978    -3.9713700807    -0.4138011833
Bq         1.6215421254    -3.9181387784    -0.5893306328
Bq         1.5019568340    -3.9979857318    -0.3260364586
Bq         1.6614038892    -3.8915231273    -0.6770953575
Bq         1.4620950702    -4.0246013829    -0.2382717339
Bq         1.7012656530    -3.8649074762    -0.7648600822
Bq         1.4222333065    -4.0512170340    -0.1505070092
Bq         1.7411274168    -3.8382918251    -0.8526248069
Bq         1.3823715427    -4.0778326851    -0.0627422845
Bq         1.7809891805    -3.8116761740    -0.9403895316
Bq         1.5816803616    -3.9447544296    -0.5015659080
Bq         1.5308121244    -3.8749770979    -0.3895679329
Bq         1.6105356520    -3.8217457957    -0.5650973823
Bq         1.4909503607    -3.9015927491    -0.3018032082
Bq         1.6503974158    -3.7951301446    -0.6528621070
Bq         1.4510885969    -3.9282084002    -0.2140384835
Bq         1.6902591796    -3.7685144935    -0.7406268317
Bq         1.4112268331    -3.9548240513    -0.1262737587
Bq         1.7301209434    -3.7418988424    -0.8283915564
Bq         1.3713650693    -3.9814397024    -0.0385090340
Bq         1.7699827072    -3.7152831913    -0.9161562812
Bq         1.5706738882    -3.8483614468    -0.4773326576
Bq         1.5198056511    -3.7785841152    -0.3653346824
Bq         1.5995291786    -3.7253528130    -0.5408641318
Bq         1.4799438873    -3.8051997663    -0.2775699577
Bq         1.6393909424    -3.6987371619    -0.6286288566
Bq         1.4400821235    -3.8318154174    -0.1898052330
Bq         1.6792527062    -3.6721215108    -0.7163935813
Bq         1.4002203597    -3.8584310686    -0.1020405083
Bq         1.7191144700    -3.6455058597    -0.8041583060
Bq         1.3603585959    -3.8850467197    -0.0142757836
Bq         1.7589762338    -3.6188902086    -0.8919230307
Bq         1.5596674149    -3.7519684641    -0.4530994071
Bq         1.5087991777    -3.6821911325    -0.3411014320
Bq         1.5885227053    -3.6289598303    -0.5166308814
Bq         1.4689374139    -3.7088067836    -0.2533367073
Bq         1.6283844691    -3.6023441792    -0.6043956061
Bq         1.4290756501    -3.7354224347    -0.1655719825
Bq         1.6682462329    -3.5757285281    -0.6921603308
Bq         1.3892138863    -3.7620380858    -0.0778072578
Bq         1.7081079966    -3.5491128770    -0.7799250555
Bq         1.3493521226    -3.7886537369     0.0099574669
Bq         1.7479697604    -3.5224972259    -0.8676897802
Bq         1.5486609415    -3.6555754814    -0.4288661567
Bq         1.4977927043    -3.5857981498    -0.3168681815
Bq         1.5775162319    -3.5325668476    -0.4923976309
Bq         1.4579309405    -3.6124138009    -0.2291034568
Bq         1.6173779957    -3.5059511965    -0.5801623556
Bq         1.4180691768    -3.6390294520    -0.1413387321
Bq         1.6572397595    -3.4793355454    -0.6679270804
Bq         1.3782074130    -3.6656451031    -0.0535740074
Bq         1.6971015233    -3.4527198943    -0.7556918051
Bq         1.3383456492    -3.6922607542     0.0341907173
Bq         1.7369632871    -3.4261042432    -0.8434565298
Bq         1.5376544681    -3.5591824987    -0.4046329062
Bq         1.4867862310    -3.4894051671    -0.2926349310
Bq         1.5665097585    -3.4361738649    -0.4681643805
Bq         1.4469244672    -3.5160208182    -0.2048702063
Bq         1.6063715223    -3.4095582138    -0.5559291052
Bq         1.4070627034    -3.5426364693    -0.1171054816
Bq         1.6462332861    -3.3829425627    -0.6436938299
Bq         1.3672009396    -3.5692521204    -0.0293407569
Bq         1.6860950499    -3.3563269116    -0.7314585546
Bq         1.3273391758    -3.5958677715     0.0584239678
Bq         1.7259568137    -3.3297112605    -0.8192232793
Bq         1.5266479947    -3.4627895160    -0.3803996558
Bq         1.4757797576    -3.3930121844    -0.2684016806
Bq         1.5555032852    -3.3397808822    -0.4439311300
Bq         1.4359179938    -3.4196278355    -0.1806369559
Bq         1.5953650489    -3.3131652311    -0.5316958547
Bq         1.3960562300    -3.4462434866    -0.0928722312
Bq         1.6352268127    -3.2865495800    -0.6194605794
Bq         1.3561944662    -3.4728591377    -0.0051075065
Bq         1.6750885765    -3.2599339288    -0.7072253042
Bq         1.3163327024    -3.4994747888     0.0826572183
Bq         1.7149503403    -3.2333182777    -0.7949900289
Bq         1.5156415214    -3.3663965333    -0.3561664053
Bq         1.4647732842    -3.2966192017    -0.2441684301
Bq         1.5444968118    -3.2433878995    -0.4196978796
Bq         1.4249115204    -3.3232348528    -0.1564037054
Bq         1.5843585756    -3.2167722484    -0.5074626043
Bq         1.3850497566    -3.3498505039    -0.0686389807
Bq         1.6242203394    -3.1901565972    -0.5952273290
Bq         1.3451879928    -3.3764661550     0.0191257440
Bq         1.6640821031    -3.1635409461    -0.6829920537
Bq         1.3053262291    -3.4030818061     0.1068904687
Bq         1.7039438669    -3.1369252950    -0.7707567784
Bq         1.5046350480    -3.2700035506    -0.3319331548
Bq         1.4537668108    -3.2002262190    -0.2199351797
Bq         1.5334903384    -3.1469949167    -0.3954646291
Bq         1.4139050471    -3.2268418701    -0.1321704550
Bq         1.5733521022    -3.1203792656    -0.4832293538
Bq         1.3740432833    -3.2534575212    -0.0444057302
Bq         1.6132138660    -3.0937636145    -0.5709940785
Bq         1.3341815195    -3.2800731723     0.0433589945
Bq         1.6530756298    -3.0671479634    -0.6587588032
Bq         1.2943197557    -3.3066888234     0.1311237192
Bq         1.6929373936    -3.0405323123    -0.7465235279
Bq         1.4936285746    -3.1736105679    -0.3076999044
Bq         1.4427603375    -3.1038332362    -0.1957019292
Bq         1.5224838650    -3.0506019340    -0.3712313786
Bq         1.4028985737    -3.1304488874    -0.1079372045
Bq         1.5623456288    -3.0239862829    -0.4589961034
Bq         1.3630368099    -3.1570645385    -0.0201724798
Bq         1.6022073926    -2.9973706318    -0.5467608281
Bq         1.3231750461    -3.1836801896     0.0675922449
Bq         1.6420691564    -2.9707549807    -0.6345255528
Bq         1.2833132823    -3.2102958407     0.1553569696
Bq         1.6819309202    -2.9441393296    -0.7222902775
Bq         1.4826221013    -3.0772175851    -0.2834666539
Bq         1.4317538641    -3.0074402535    -0.1714686788
Bq         1.5114773917    -2.9542089513    -0.3469981282
Bq         1.3918921003    -3.0340559046    -0.0837039540
Bq         1.5513391555    -2.9275933002    -0.4347628529
Bq         1.3520303365    -3.0606715558     0.0040607707
Bq         1.5912009192    -2.9009776491    -0.5225275776
Bq         1.3121685727    -3.0872872069     0.0918254954
Bq         1.6310626830    -2.8743619980    -0.6102923023
Bq         1.2723068089    -3.1139028580     0.1795902201
Bq         1.6709244468    -2.8477463469    -0.6980570270
Bq         1.4716156279    -2.9808246024    -0.2592334035
Bq         1.4207473907    -2.9110472708    -0.1472354283
Bq         1.5004709183    -2.8578159686    -0.3227648777
Bq         1.3808856269    -2.9376629219    -0.0594707036
Bq         1.5403326821    -2.8312003175    -0.4105296024
Bq         1.3410238631    -2.9642785730     0.0282940211
Bq         1.5801944459    -2.8045846664    -0.4982943271
Bq         1.3011620994    -2.9908942241     0.1160587458
Bq         1.6200562097    -2.7779690153    -0.5860590519
Bq         1.2613003356    -3.0175098753     0.2038234706
Bq         1.6599179734    -2.7513533642    -0.6738237766
Bq         1.4606091545    -2.8844316197    -0.2350001530
Bq         1.4097409174    -2.8146542881    -0.1230021778
Bq         1.4894644449    -2.7614229859    -0.2985316273
Bq         1.3698791536    -2.8412699392    -0.0352374531
Bq         1.5293262087    -2.7348073348    -0.3862963520
Bq         1.3300173898    -2.8678855903     0.0525272716
Bq         1.5691879725    -2.7081916837    -0.4740610767
Bq         1.2901556260    -2.8945012414     0.1402919963
Bq         1.6090497363    -2.6815760326    -0.5618258014
Bq         1.2502938622    -2.9211168925     0.2280567210
Bq         1.6489115001    -2.6549603815    -0.6495905261

1
2
3
4
5
6
7
8
9
10
11
12
13
14
15
16
17
18
19
20
21
22
23
24
25
26
27
28
29
30
31
32
33
34
35
36
37
38
39
40
41
42
43
44
45
46
47
48
49
50
51
52
53
54
55
56
57
58
59
60
61
62
63
64
65
66
67
68
69
70
71
72
73
74
75
76
77
78
79
80
81
82
83
84
85
86
87
88
89
90
91
92
93
94
95
96
97
98
99
100
101
102
103
104
105
106
107
108
109
110
111
112
113
114
115
116
117
118
119
120
121
122
123
124
125
126
127
128
129
130
131
132
133
134
135
136
137
138
139
140
141
142
143
144
145
146
147
148
149
150
151
152
153
154
155
156
157
158
159
160
161
162
163
164
165
166
167
168
169
170
171
172
173
174
175
176
177
178
179
180
181
182
183
184
185
186
187
188
189
190
191
192
193
194
195
196
197
198
199
200
201
202
203
204
205
206
207
208
209
210
211
212
213
214
215
216
217
218
219
220
221
222
223
224
225
226
227
228
229
230
231
232
233
234
235
236

