%nproc=8
%mem=1000MB
# rb3lyp/6-311+g** NMR geom=connectivity

Title

0 1
C    -4.0500558   -0.5771862    0.8136712
H    -5.0263804   -1.0082727    1.0024760
C    -3.9381552    0.6617804    0.2400876
H    -4.8252424    1.2338890   -0.0111295
C    -2.6768410    1.2433246    0.0057578
C    -1.4974121    0.5051527    0.2848253
C    -1.6508332   -0.7338728    0.9404026
H    -0.7713646   -1.2730967    1.2633753
C    -2.8898548   -1.2624035    1.1994307
H    -2.9683706   -2.2124563    1.7152676
C    -2.5773185    2.5963696   -0.4192930
H    -3.4870728    3.1412239   -0.6474055
C    -1.3741895    3.2147896   -0.4364030
H    -1.2997315    4.2742019   -0.6578144
C    -0.1719488    2.4994090   -0.1734588
C    -0.2043917    1.1018437    0.0192689
C     1.0513491    3.2042560   -0.0676222
H     1.0427344    4.2819499   -0.1896997
C     2.1942091    2.5487446    0.2579577
H     3.1168527    3.0912848    0.4334727
C     2.2216473    1.1336562    0.2934990
C     1.0486931    0.3945528    0.0302412
C     3.4483363    0.4614633    0.5573939
H     4.3095794    1.0606054    0.8334846
C     3.5427346   -0.8855926    0.4749463
H     4.4731467   -1.3939704    0.7038822
C     2.4490052   -1.6474447   -0.0196319
C     1.2150704   -1.0057258   -0.3013573
C     0.2531113   -1.7434440   -1.0216591
H    -0.6541356   -1.2535051   -1.3462847
C     0.4494193   -3.0628597   -1.3413779
H    -0.3083162   -3.5944309   -1.9054060
C     1.6251726   -3.7207967   -0.9552541
H     1.7670048   -4.7687404   -1.1927019
C     2.6109872   -3.0144177   -0.3183050
H     3.5525612   -3.4902813   -0.0646367
Bq        -0.6857055421     1.3081402968     1.0546342080
Bq        -0.6821655864     0.8733131267     0.1541272391
Bq        -0.6839355642     1.0907267117     0.6043807235
Bq        -0.6841186275     1.2242608214     0.6509490394
Bq        -0.6834106364     1.1372953874     0.4708476456
Bq        -0.6844726231     1.2677435384     0.7409997363
Bq        -0.6830566408     1.0938126704     0.3807969487
Bq        -0.6848266187     1.3112262554     0.8310504332
Bq        -0.6827026452     1.0503299534     0.2907462519
Bq        -0.6851806143     1.3547089724     0.9211011300
Bq        -0.6823486497     1.0068472364     0.2006955550
Bq        -0.6855346098     1.3981916894     1.0111518269
Bq        -0.6819946541     0.9633645194     0.1106448581
Bq        -0.6837646320     1.1807781044     0.5608983425
Bq        -0.6839476953     1.3143122141     0.6074666584
Bq        -0.6832397041     1.2273467801     0.4273652646
Bq        -0.6843016908     1.3577949311     0.6975173552
Bq        -0.6828857085     1.1838640631     0.3373145677
Bq        -0.6846556864     1.4012776481     0.7875680521
Bq        -0.6825317130     1.1403813461     0.2472638708
Bq        -0.6850096820     1.4447603651     0.8776187490
Bq        -0.6821777174     1.0968986291     0.1572131739
Bq        -0.6853636776     1.4882430821     0.9676694459
Bq        -0.6818237218     1.0534159120     0.0671624771
Bq        -0.6835936997     1.2708294971     0.5174159615
Bq        -0.6837767630     1.4043636067     0.5639842773
Bq        -0.6830687718     1.3173981727     0.3838828836
Bq        -0.6841307586     1.4478463237     0.6540349742
Bq        -0.6827147763     1.2739154557     0.2938321867
Bq        -0.6844847541     1.4913290408     0.7440856711
Bq        -0.6823607807     1.2304327387     0.2037814898
Bq        -0.6848387497     1.5348117578     0.8341363680
Bq        -0.6820067851     1.1869500217     0.1137307929
Bq        -0.6851927453     1.5782944748     0.9241870649
Bq        -0.6816527895     1.1434673047     0.0236800960
Bq        -0.6834227674     1.3608808897     0.4739335804
Bq        -0.6836058307     1.4944149994     0.5205018963
Bq        -0.6828978396     1.4074495654     0.3404005025
Bq        -0.6839598263     1.5378977164     0.6105525932
Bq        -0.6825438440     1.3639668484     0.2503498056
Bq        -0.6843138219     1.5813804334     0.7006032901
Bq        -0.6821898484     1.3204841314     0.1602991088
Bq        -0.6846678174     1.6248631504     0.7906539869
Bq        -0.6818358528     1.2770014144     0.0702484119
Bq        -0.6850218130     1.6683458674     0.8807046838
Bq        -0.6814818573     1.2335186974    -0.0198022850
Bq        -0.6832518351     1.4509322824     0.4304511994
Bq        -0.6834348984     1.5844663921     0.4770195153
Bq        -0.6827269073     1.4975009581     0.2969181215
Bq        -0.6837888940     1.6279491091     0.5670702121
Bq        -0.6823729117     1.4540182411     0.2068674246
Bq        -0.6841428896     1.6714318261     0.6571209090
Bq        -0.6820189161     1.4105355241     0.1168167277
Bq        -0.6844968852     1.7149145431     0.7471716059
Bq        -0.6816649206     1.3670528071     0.0267660308
Bq        -0.6848508807     1.7583972601     0.8372223028
Bq        -0.6813109250     1.3235700901    -0.0632846660
Bq        -0.6830809029     1.5409836751     0.3869688184
Bq        -0.6832639662     1.6745177848     0.4335371342
Bq        -0.6825559750     1.5875523507     0.2534357405
Bq        -0.6836179617     1.7180005018     0.5235878311
Bq        -0.6822019794     1.5440696337     0.1633850436
Bq        -0.6839719573     1.7614832188     0.6136385280
Bq        -0.6818479839     1.5005869167     0.0733343467
Bq        -0.6843259529     1.8049659358     0.7036892249
Bq        -0.6814939883     1.4571041997    -0.0167163502
Bq        -0.6846799485     1.8484486528     0.7937399218
Bq        -0.6811399927     1.4136214827    -0.1067670471
Bq        -0.6829099706     1.6310350678     0.3434864373
Bq        -0.6830930339     1.7645691774     0.3900547532
Bq        -0.6823850427     1.6776037434     0.2099533594
Bq        -0.6834470295     1.8080518944     0.4801054501
Bq        -0.6820310472     1.6341210264     0.1199026625
Bq        -0.6838010250     1.8515346114     0.5701561470
Bq        -0.6816770516     1.5906383094     0.0298519657
Bq        -0.6841550206     1.8950173284     0.6602068438
Bq        -0.6813230560     1.5471555924    -0.0601987312
Bq        -0.6845090162     1.9385000454     0.7502575407
Bq        -0.6809690605     1.5036728754    -0.1502494281
Bq        -0.6827390383     1.7210864604     0.3000040563
Bq        -0.6829221016     1.8546205701     0.3465723722
Bq        -0.6822141105     1.7676551361     0.1664709784
Bq        -0.6832760972     1.8981032871     0.4366230690
Bq        -0.6818601149     1.7241724191     0.0764202815
Bq        -0.6836300928     1.9415860041     0.5266737659
Bq        -0.6815061193     1.6806897021    -0.0136304154
Bq        -0.6839840883     1.9850687211     0.6167244628
Bq        -0.6811521238     1.6372069851    -0.1036811122
Bq        -0.6843380839     2.0285514381     0.7067751597
Bq        -0.6807981282     1.5937242681    -0.1937318091
Bq        -0.6825681060     1.8111378531     0.2565216753
Bq        -0.6827511693     1.9446719628     0.3030899911
Bq        -0.6820431782     1.8577065288     0.1229885974
Bq        -0.6831051649     1.9881546798     0.3931406880
Bq        -0.6816891826     1.8142238118     0.0329379005
Bq        -0.6834591605     2.0316373968     0.4831913849
Bq        -0.6813351870     1.7707410947    -0.0571127964
Bq        -0.6838131561     2.0751201138     0.5732420818
Bq        -0.6809811915     1.7272583777    -0.1471634933
Bq        -0.6841671516     2.1186028308     0.6632927787
Bq        -0.6806271959     1.6837756607    -0.2372141902
Bq        -0.6823971738     1.9011892458     0.2130392942
Bq        -0.6825802371     2.0347233554     0.2596076101
Bq        -0.6818722459     1.9477579214     0.0795062163
Bq        -0.6829342326     2.0782060724     0.3496583070
Bq        -0.6815182503     1.9042752044    -0.0105444805
Bq        -0.6832882282     2.1216887894     0.4397090039
Bq        -0.6811642548     1.8607924874    -0.1005951774
Bq        -0.6836422238     2.1651715065     0.5297597007
Bq        -0.6808102592     1.8173097704    -0.1906458743
Bq        -0.6839962194     2.2086542235     0.6198103976
Bq        -0.6804562636     1.7738270534    -0.2806965712
Bq        -0.6822262415     1.9912406384     0.1695569132
Bq        -0.6824093048     2.1247747481     0.2161252291
Bq        -0.6817013136     2.0378093141     0.0360238353
Bq        -0.6827633004     2.1682574651     0.3061759259
Bq        -0.6813473181     1.9943265971    -0.0540268616
Bq        -0.6831172959     2.2117401821     0.3962266228
Bq        -0.6809933225     1.9508438801    -0.1440775585
Bq        -0.6834712915     2.2552228991     0.4862773197
Bq        -0.6806393269     1.9073611631    -0.2341282553
Bq        -0.6838252871     2.2987056161     0.5763280166
Bq        -0.6802853314     1.8638784461    -0.3241789522
Bq        -0.6820553092     2.0812920311     0.1260745322
Bq        -0.6822383725     2.2148261408     0.1726428480
Bq        -0.6815303814     2.1278607068    -0.0074585457
Bq        -0.6825923681     2.2583088578     0.2626935449
Bq        -0.6811763858     2.0843779898    -0.0975092426
Bq        -0.6829463637     2.3017915748     0.3527442418
Bq        -0.6808223902     2.0408952728    -0.1875599395
Bq        -0.6833003592     2.3452742918     0.4427949387
Bq        -0.6804683947     1.9974125558    -0.2776106364
Bq        -0.6836543548     2.3887570088     0.5328456356
Bq        -0.6801143991     1.9539298388    -0.3676613333
Bq        -0.6818843769     2.1713434238     0.0825921512
Bq        -0.6820674402     2.3048775334     0.1291604670
Bq        -0.6813594491     2.2179120994    -0.0509409268
Bq        -0.6824214358     2.3483602505     0.2192111639
Bq        -0.6810054535     2.1744293824    -0.1409916236
Bq        -0.6827754314     2.3918429675     0.3092618608
Bq        -0.6806514580     2.1309466654    -0.2310423205
Bq        -0.6831294270     2.4353256845     0.3993125576
Bq        -0.6802974624     2.0874639484    -0.3210930174
Bq        -0.6834834225     2.4788084015     0.4893632545
Bq        -0.6799434668     2.0439812314    -0.4111437143
Bq        -0.6817134447     2.2613948164     0.0391097701
Bq        -0.6818965080     2.3949289261     0.0856780860
Bq        -0.6811885168     2.3079634921    -0.0944233078
Bq        -0.6822505035     2.4384116431     0.1757287829
Bq        -0.6808345213     2.2644807751    -0.1844740047
Bq        -0.6826044991     2.4818943601     0.2657794797
Bq        -0.6804805257     2.2209980581    -0.2745247016
Bq        -0.6829584947     2.5253770771     0.3558301766
Bq        -0.6801265301     2.1775153411    -0.3645753984
Bq        -0.6833124903     2.5688597941     0.4458808735
Bq        -0.6797725345     2.1340326241    -0.4546260953
Bq        -0.6815425124     2.3514462091    -0.0043726109
Bq        -0.6817255757     2.4849803188     0.0421957049
Bq        -0.6810175846     2.3980148848    -0.1379056888
Bq        -0.6820795713     2.5284630358     0.1322464018
Bq        -0.6806635890     2.3545321678    -0.2279563857
Bq        -0.6824335668     2.5719457528     0.2222970987
Bq        -0.6803095934     2.3110494508    -0.3180070826
Bq        -0.6827875624     2.6154284698     0.3123477956
Bq        -0.6799555978     2.2675667338    -0.4080577795
Bq        -0.6831415580     2.6589111868     0.4023984925
Bq        -0.6796016023     2.2240840168    -0.4981084764
Bq        -0.6813715801     2.4414976018    -0.0478549919
Bq        -0.5902729621    -2.0175893147     2.2167078605
Bq        -0.5895649709    -2.1045547487     2.0366064667
Bq        -0.5906269577    -1.9741065977     2.3067585574
Bq        -0.5892109754    -2.1480374658     1.9465557699
Bq        -0.5909809532    -1.9306238807     2.3968092543
Bq        -0.5888569798    -2.1915201828     1.8565050730
Bq        -0.5913349488    -1.8871411637     2.4868599512
Bq        -0.5885029842    -2.2350028998     1.7664543761
Bq        -0.5916889444    -1.8436584467     2.5769106480
Bq        -0.5881489886    -2.2784856168     1.6764036792
Bq        -0.5899189665    -2.0610720317     2.1266571636
Bq        -0.5901020298    -1.9275379221     2.1732254795
Bq        -0.5893940387    -2.0145033561     1.9931240857
Bq        -0.5904560254    -1.8840552051     2.2632761764
Bq        -0.5890400431    -2.0579860731     1.9030733888
Bq        -0.5908100210    -1.8405724881     2.3533268732
Bq        -0.5886860475    -2.1014687901     1.8130226919
Bq        -0.5911640165    -1.7970897711     2.4433775701
Bq        -0.5883320519    -2.1449515071     1.7229719951
Bq        -0.5915180121    -1.7536070540     2.5334282670
Bq        -0.5879780564    -2.1884342241     1.6329212982
Bq        -0.5897480342    -1.9710206391     2.0831747826
Bq        -0.5899310975    -1.8374865294     2.1297430984
Bq        -0.5892231064    -1.9244519634     1.9496417047
Bq        -0.5902850931    -1.7940038124     2.2197937953
Bq        -0.5888691108    -1.9679346804     1.8595910078
Bq        -0.5906390887    -1.7505210954     2.3098444922
Bq        -0.5885151152    -2.0114173974     1.7695403109
Bq        -0.5909930843    -1.7070383784     2.3998951891
Bq        -0.5881611197    -2.0549001144     1.6794896140
Bq        -0.5913470798    -1.6635556614     2.4899458860
Bq        -0.5878071241    -2.0983828314     1.5894389171

1
2
3
4
5
6
7
8
9
10
11
12
13
14
15
16
17
18
19
20
21
22
23
24
25
26
27
28
29
30
31
32
33
34
35
36
37
38
39
40
41
42
43
44
45
46
47
48
49
50
51
52
53
54
55
56
57
58
59
60
61
62
63
64
65
66
67
68
69
70
71
72
73
74
75
76
77
78
79
80
81
82
83
84
85
86
87
88
89
90
91
92
93
94
95
96
97
98
99
100
101
102
103
104
105
106
107
108
109
110
111
112
113
114
115
116
117
118
119
120
121
122
123
124
125
126
127
128
129
130
131
132
133
134
135
136
137
138
139
140
141
142
143
144
145
146
147
148
149
150
151
152
153
154
155
156
157
158
159
160
161
162
163
164
165
166
167
168
169
170
171
172
173
174
175
176
177
178
179
180
181
182
183
184
185
186
187
188
189
190
191
192
193
194
195
196
197
198
199
200
201
202
203
204
205
206
207
208
209
210
211
212
213
214
215
216
217
218
219
220
221
222
223
224
225
226
227
228
229
230
231
232
233
234
235
236

