%nproc=8
%mem=1000MB
# rb3lyp/6-311+g** NMR geom=connectivity

Title

0 1
C    -4.0500558   -0.5771862    0.8136712
H    -5.0263804   -1.0082727    1.0024760
C    -3.9381552    0.6617804    0.2400876
H    -4.8252424    1.2338890   -0.0111295
C    -2.6768410    1.2433246    0.0057578
C    -1.4974121    0.5051527    0.2848253
C    -1.6508332   -0.7338728    0.9404026
H    -0.7713646   -1.2730967    1.2633753
C    -2.8898548   -1.2624035    1.1994307
H    -2.9683706   -2.2124563    1.7152676
C    -2.5773185    2.5963696   -0.4192930
H    -3.4870728    3.1412239   -0.6474055
C    -1.3741895    3.2147896   -0.4364030
H    -1.2997315    4.2742019   -0.6578144
C    -0.1719488    2.4994090   -0.1734588
C    -0.2043917    1.1018437    0.0192689
C     1.0513491    3.2042560   -0.0676222
H     1.0427344    4.2819499   -0.1896997
C     2.1942091    2.5487446    0.2579577
H     3.1168527    3.0912848    0.4334727
C     2.2216473    1.1336562    0.2934990
C     1.0486931    0.3945528    0.0302412
C     3.4483363    0.4614633    0.5573939
H     4.3095794    1.0606054    0.8334846
C     3.5427346   -0.8855926    0.4749463
H     4.4731467   -1.3939704    0.7038822
C     2.4490052   -1.6474447   -0.0196319
C     1.2150704   -1.0057258   -0.3013573
C     0.2531113   -1.7434440   -1.0216591
H    -0.6541356   -1.2535051   -1.3462847
C     0.4494193   -3.0628597   -1.3413779
H    -0.3083162   -3.5944309   -1.9054060
C     1.6251726   -3.7207967   -0.9552541
H     1.7670048   -4.7687404   -1.1927019
C     2.6109872   -3.0144177   -0.3183050
H     3.5525612   -3.4902813   -0.0646367
Bq         0.0857740396     1.3290880950     0.2503217040
Bq         0.0133942744     1.3536555204     0.7444447770
Bq         0.1002499927     1.3241746099     0.1514970894
Bq        -0.0010816786     1.3585690055     0.8432693915
Bq         0.1147259457     1.3192611249     0.0526724749
Bq        -0.0155576317     1.3634824906     0.9420940061
Bq         0.1292018988     1.3143476398    -0.0461521397
Bq         0.0568221336     1.3389150652     0.4479709332
Bq         0.0430583145     1.4437077657     0.5419339430
Bq         0.0720102205     1.4338807955     0.3442847138
Bq         0.0285823614     1.4486212507     0.6407585576
Bq         0.0864861736     1.4289673104     0.2454600993
Bq         0.0141064084     1.4535347358     0.7395831722
Bq         0.1009621266     1.4240538253     0.1466354847
Bq        -0.0003695447     1.4584482209     0.8384077868
Bq         0.1154380797     1.4191403402     0.0478108701
Bq        -0.0148454977     1.4633617060     0.9372324014
Bq         0.1299140327     1.4142268552    -0.0510137445
Bq         0.0575342675     1.4387942806     0.4431093284
Bq         0.0437704484     1.5435869810     0.5370723382
Bq         0.0727223545     1.5337600109     0.3394231091
Bq         0.0292944954     1.5485004661     0.6358969528
Bq         0.0871983075     1.5288465258     0.2405984945
Bq         0.0148185423     1.5534139512     0.7347215674
Bq         0.1016742606     1.5239330407     0.1417738799
Bq         0.0003425893     1.5583274363     0.8335461820
Bq         0.1161502136     1.5190195556     0.0429492653
Bq        -0.0141333638     1.5632409214     0.9323707966
Bq         0.1306261667     1.5141060705    -0.0558753493
Bq         0.0582464014     1.5386734959     0.4382477237
Bq         0.0444825823     1.6434661964     0.5322107335
Bq         0.0734344884     1.6336392262     0.3345615043
Bq         0.0300066293     1.6483796815     0.6310353481
Bq         0.0879104415     1.6287257412     0.2357368897
Bq         0.0155306763     1.6532931666     0.7298599627
Bq         0.1023863945     1.6238122561     0.1369122751
Bq         0.0010547232     1.6582066517     0.8286845772
Bq         0.1168623476     1.6188987710     0.0380876606
Bq        -0.0134212298     1.6631201367     0.9275091918
Bq         0.1313383006     1.6139852859    -0.0607369540
Bq         0.0589585354     1.6385527113     0.4333861189
Bq         0.0451947163     1.7433454118     0.5273491287
Bq         0.0741466224     1.7335184416     0.3296998995
Bq         0.0307187632     1.7482588969     0.6261737433
Bq         0.0886225754     1.7286049565     0.2308752850
Bq         0.0162428102     1.7531723819     0.7249983579
Bq         0.1030985285     1.7236914715     0.1320506704
Bq         0.0017668571     1.7580858670     0.8238229725
Bq         0.1175744815     1.7187779864     0.0332260558
Bq        -0.0127090959     1.7629993521     0.9226475871
Bq         0.1320504345     1.7138645013    -0.0655985588
Bq         0.0596706693     1.7384319267     0.4285245141
Bq         0.0459068502     1.8432246272     0.5224875239
Bq         0.0748587563     1.8333976570     0.3248382948
Bq         0.0314308972     1.8481381122     0.6213121385
Bq         0.0893347094     1.8284841719     0.2260136802
Bq         0.0169549441     1.8530515973     0.7201367531
Bq         0.1038106624     1.8235706868     0.1271890656
Bq         0.0024789911     1.8579650824     0.8189613677
Bq         0.1182866154     1.8186572017     0.0283644510
Bq        -0.0119969620     1.8628785675     0.9177859823
Bq         0.1327625685     1.8137437167    -0.0704601636
Bq         0.0603828033     1.8383111421     0.4236629094
Bq         0.0466189842     1.9431038425     0.5176259192
Bq         0.0755708903     1.9332768724     0.3199766900
Bq         0.0321430311     1.9480173276     0.6164505338
Bq         0.0900468433     1.9283633873     0.2211520754
Bq         0.0176670781     1.9529308127     0.7152751484
Bq         0.1045227963     1.9234499022     0.1223274608
Bq         0.0031911250     1.9578442978     0.8140997629
Bq         0.1189987494     1.9185364171     0.0235028463
Bq        -0.0112848280     1.9627577829     0.9129243775
Bq         0.1334747024     1.9136229320    -0.0753217683
Bq         0.0610949372     1.9381903575     0.4188013046
Bq         0.0473311181     2.0429830579     0.5127643144
Bq         0.0762830242     2.0331560878     0.3151150852
Bq         0.0328551651     2.0478965430     0.6115889290
Bq         0.0907589772     2.0282426027     0.2162904707
Bq         0.0183792120     2.0528100281     0.7104135436
Bq         0.1052349303     2.0233291176     0.1174658561
Bq         0.0039032590     2.0577235132     0.8092381582
Bq         0.1197108833     2.0184156325     0.0186412415
Bq        -0.0105726941     2.0626369982     0.9080627728
Bq         0.1341868364     2.0135021474    -0.0801833731
Bq         0.0618070712     2.0380695728     0.4139396998
Bq         0.0480432520     2.1428622733     0.5079027096
Bq         0.0769951581     2.1330353031     0.3102534805
Bq         0.0335672990     2.1477757584     0.6067273242
Bq         0.0914711112     2.1281218180     0.2114288659
Bq         0.0190913460     2.1526892435     0.7055519388
Bq         0.1059470642     2.1232083330     0.1126042513
Bq         0.0046153929     2.1576027285     0.8043765534
Bq         0.1204230173     2.1182948479     0.0137796367
Bq        -0.0098605601     2.1625162136     0.9032011680
Bq         0.1348989703     2.1133813628    -0.0850449779
Bq         0.0625192051     2.1379487882     0.4090780951
Bq         0.0487553860     2.2427414887     0.5030411049
Bq         0.0777072921     2.2329145185     0.3053918757
Bq         0.0342794329     2.2476549738     0.6018657195
Bq         0.0921832451     2.2280010334     0.2065672611
Bq         0.0198034799     2.2525684588     0.7006903341
Bq         0.1066591982     2.2230875483     0.1077426465
Bq         0.0053275269     2.2574819439     0.7995149486
Bq         0.1211351512     2.2181740633     0.0089180320
Bq        -0.0091484262     2.2623954290     0.8983395632
Bq         0.1356111043     2.2132605782    -0.0899065826
Bq         0.0632313390     2.2378280036     0.4042164903
Bq         0.0494675199     2.3426207040     0.4981795001
Bq         0.0784194260     2.3327937339     0.3005302709
Bq         0.0349915669     2.3475341891     0.5970041147
Bq         0.0928953791     2.3278802488     0.2017056564
Bq         0.0205156138     2.3524476742     0.6958287293
Bq         0.1073713321     2.3229667637     0.1028810418
Bq         0.0060396608     2.3573611593     0.7946533439
Bq         0.1218472852     2.3180532786     0.0040564272
Bq        -0.0084362922     2.3622746444     0.8934779585
Bq         0.1363232382     2.3131397936    -0.0947681874
Bq         0.0639434730     2.3377072190     0.3993548855
Bq         0.0501796539     2.4424999194     0.4933178954
Bq         0.0791315600     2.4326729493     0.2956686662
Bq         0.0357037008     2.4474134045     0.5921425099
Bq         0.0936075130     2.4277594642     0.1968440516
Bq         0.0212277478     2.4523268896     0.6909671245
Bq         0.1080834661     2.4228459791     0.0980194370
Bq         0.0067517947     2.4572403747     0.7897917391
Bq         0.1225594191     2.4179324940    -0.0008051776
Bq        -0.0077241583     2.4621538598     0.8886163537
Bq         0.1370353721     2.4130190089    -0.0996297922
Bq         0.0646556069     2.4375864343     0.3944932808
Bq         0.0508917878     2.5423791348     0.4884562906
Bq         0.0798436939     2.5325521646     0.2908070614
Bq         0.0364158348     2.5472926199     0.5872809052
Bq         0.0943196469     2.5276386796     0.1919824468
Bq         0.0219398817     2.5522061050     0.6861055198
Bq         0.1087956000     2.5227251945     0.0931578322
Bq         0.0074639287     2.5571195900     0.7849301343
Bq         0.1232715530     2.5178117094    -0.0056667823
Bq        -0.0070120244     2.5620330751     0.8837547489
Bq         0.1377475061     2.5128982243    -0.1044913969
Bq         0.0653677409     2.5374656497     0.3896316760
Bq         0.0516039218     2.6422583502     0.4835946858
Bq         0.0805558278     2.6324313800     0.2859454566
Bq         0.0371279687     2.6471718353     0.5824193004
Bq         0.0950317809     2.6275178949     0.1871208421
Bq         0.0226520157     2.6520853203     0.6812439150
Bq         0.1095077339     2.6226044098     0.0882962275
Bq         0.0081760626     2.6569988054     0.7800685296
Bq         0.1239836870     2.6176909248    -0.0105283871
Bq        -0.0062998904     2.6619122905     0.8788931442
Bq         0.1384596400     2.6127774397    -0.1093530017
Bq         0.0660798748     2.6373448651     0.3847700712
Bq         0.0523160557     2.7421375656     0.4787330811
Bq         0.0812679618     2.7323105954     0.2810838519
Bq         0.0378401027     2.7470510506     0.5775576956
Bq         0.0957439148     2.7273971103     0.1822592373
Bq         0.0233641496     2.7519645357     0.6763823102
Bq         0.1102198679     2.7224836252     0.0834346227
Bq         0.0088881966     2.7568780208     0.7752069248
Bq         0.1246958209     2.7175701401    -0.0153899919
Bq        -0.0055877565     2.7617915059     0.8740315394
Bq         0.1391717740     2.7126566551    -0.1142146065
Bq         0.0667920087     2.7372240805     0.3799084665
Bq         0.0530281896     2.8420167809     0.4738714763
Bq         0.0819800957     2.8321898108     0.2762222471
Bq         0.0385522366     2.8469302660     0.5726960909
Bq         0.0964560488     2.8272763257     0.1773976325
Bq         0.0240762836     2.8518437511     0.6715207055
Bq         0.1109320018     2.8223628406     0.0785730179
Bq         0.0096003305     2.8567572362     0.7703453200
Bq         0.1254079549     2.8174493555    -0.0202515966
Bq        -0.0048756225     2.8616707213     0.8691699346
Bq         0.1398839079     2.8125358704    -0.1190762112
Bq         0.0675041427     2.8371032959     0.3750468617
Bq         0.0537403236     2.9418959963     0.4690098715
Bq         0.0826922297     2.9320690261     0.2713606423
Bq         0.0392643705     2.9468094814     0.5678344861
Bq         0.0971681827     2.9271555411     0.1725360278
Bq         0.0247884175     2.9517229665     0.6666591007
Bq         0.1116441358     2.9222420560     0.0737114132
Bq         0.0103124644     2.9566364516     0.7654837153
Bq         0.1261200888     2.9173285709    -0.0251132014
Bq        -0.0041634886     2.9615499366     0.8643083299
Bq         0.1405960418     2.9124150858    -0.1239378160
Bq         0.0682162766     2.9369825112     0.3701852569
Bq         0.0544524575     3.0417752117     0.4641482668
Bq         0.0834043636     3.0319482415     0.2664990376
Bq         0.0399765045     3.0466886968     0.5629728813
Bq         0.0978803167     3.0270347564     0.1676744230
Bq         0.0255005514     3.0516021819     0.6617974959
Bq         0.1123562697     3.0221212714     0.0688498084
Bq         0.0110245984     3.0565156669     0.7606221105
Bq         0.1268322227     3.0172077863    -0.0299748062
Bq        -0.0034513547     3.0614291520     0.8594467251
Bq         0.1413081758     3.0122943012    -0.1287994208
Bq         0.0689284106     3.0368617266     0.3653236522
Bq         0.0551645915     3.1416544271     0.4592866620
Bq         0.0841164976     3.1318274569     0.2616374328
Bq         0.0406886384     3.1465679121     0.5581112766
Bq         0.0985924506     3.1269139718     0.1628128182
Bq         0.0262126854     3.1514813972     0.6569358912

1
2
3
4
5
6
7
8
9
10
11
12
13
14
15
16
17
18
19
20
21
22
23
24
25
26
27
28
29
30
31
32
33
34
35
36
37
38
39
40
41
42
43
44
45
46
47
48
49
50
51
52
53
54
55
56
57
58
59
60
61
62
63
64
65
66
67
68
69
70
71
72
73
74
75
76
77
78
79
80
81
82
83
84
85
86
87
88
89
90
91
92
93
94
95
96
97
98
99
100
101
102
103
104
105
106
107
108
109
110
111
112
113
114
115
116
117
118
119
120
121
122
123
124
125
126
127
128
129
130
131
132
133
134
135
136
137
138
139
140
141
142
143
144
145
146
147
148
149
150
151
152
153
154
155
156
157
158
159
160
161
162
163
164
165
166
167
168
169
170
171
172
173
174
175
176
177
178
179
180
181
182
183
184
185
186
187
188
189
190
191
192
193
194
195
196
197
198
199
200
201
202
203
204
205
206
207
208
209
210
211
212
213
214
215
216
217
218
219
220
221
222
223
224
225
226
227
228
229
230
231
232
233
234
235
236

