%nproc=8
%mem=1000MB
# rb3lyp/6-311+g** NMR geom=connectivity

Title

0 1
C    -4.0500558   -0.5771862    0.8136712
H    -5.0263804   -1.0082727    1.0024760
C    -3.9381552    0.6617804    0.2400876
H    -4.8252424    1.2338890   -0.0111295
C    -2.6768410    1.2433246    0.0057578
C    -1.4974121    0.5051527    0.2848253
C    -1.6508332   -0.7338728    0.9404026
H    -0.7713646   -1.2730967    1.2633753
C    -2.8898548   -1.2624035    1.1994307
H    -2.9683706   -2.2124563    1.7152676
C    -2.5773185    2.5963696   -0.4192930
H    -3.4870728    3.1412239   -0.6474055
C    -1.3741895    3.2147896   -0.4364030
H    -1.2997315    4.2742019   -0.6578144
C    -0.1719488    2.4994090   -0.1734588
C    -0.2043917    1.1018437    0.0192689
C     1.0513491    3.2042560   -0.0676222
H     1.0427344    4.2819499   -0.1896997
C     2.1942091    2.5487446    0.2579577
H     3.1168527    3.0912848    0.4334727
C     2.2216473    1.1336562    0.2934990
C     1.0486931    0.3945528    0.0302412
C     3.4483363    0.4614633    0.5573939
H     4.3095794    1.0606054    0.8334846
C     3.5427346   -0.8855926    0.4749463
H     4.4731467   -1.3939704    0.7038822
C     2.4490052   -1.6474447   -0.0196319
C     1.2150704   -1.0057258   -0.3013573
C     0.2531113   -1.7434440   -1.0216591
H    -0.6541356   -1.2535051   -1.3462847
C     0.4494193   -3.0628597   -1.3413779
H    -0.3083162   -3.5944309   -1.9054060
C     1.6251726   -3.7207967   -0.9552541
H     1.7670048   -4.7687404   -1.1927019
C     2.6109872   -3.0144177   -0.3183050
H     3.5525612   -3.4902813   -0.0646367
Bq         0.7537038043     1.9381903575     0.5202555170
Bq         0.7399399852     2.0429830579     0.6142185268
Bq         0.7688918913     2.0331560878     0.4165692976
Bq         0.7254640322     2.0478965430     0.7130431414
Bq         0.7833678443     2.0282426027     0.3177446831
Bq         0.7109880791     2.0528100281     0.8118677560
Bq         0.7978437974     2.0233291176     0.2189200685
Bq         0.6965121261     2.0577235132     0.9106923706
Bq         0.8123197504     2.0184156325     0.1200954539
Bq         0.6820361730     2.0626369982     1.0095169852
Bq         0.8267957035     2.0135021474     0.0212708393
Bq         0.7544159383     2.0380695728     0.5153939122
Bq         0.7406521191     2.1428622733     0.6093569220
Bq         0.7696040252     2.1330353031     0.4117076929
Bq         0.7261761661     2.1477757584     0.7081815366
Bq         0.7840799783     2.1281218180     0.3128830783
Bq         0.7117002131     2.1526892435     0.8070061512
Bq         0.7985559313     2.1232083330     0.2140584637
Bq         0.6972242600     2.1576027285     0.9058307658
Bq         0.8130318844     2.1182948479     0.1152338491
Bq         0.6827483070     2.1625162136     1.0046553804
Bq         0.8275078374     2.1133813628     0.0164092345
Bq         0.7551280722     2.1379487882     0.5105323075
Bq         0.7413642531     2.2427414887     0.6044953173
Bq         0.7703161592     2.2329145185     0.4068460881
Bq         0.7268883000     2.2476549738     0.7033199319
Bq         0.7847921122     2.2280010334     0.3080214735
Bq         0.7124123470     2.2525684588     0.8021445465
Bq         0.7992680653     2.2230875483     0.2091968589
Bq         0.6979363940     2.2574819439     0.9009691610
Bq         0.8137440183     2.2181740633     0.1103722444
Bq         0.6834604409     2.2623954290     0.9997937756
Bq         0.8282199714     2.2132605782     0.0115476298
Bq         0.7558402061     2.2378280036     0.5056707027
Bq         0.7420763870     2.3426207040     0.5996337125
Bq         0.7710282931     2.3327937339     0.4019844833
Bq         0.7276004340     2.3475341891     0.6984583271
Bq         0.7855042462     2.3278802488     0.3031598688
Bq         0.7131244809     2.3524476742     0.7972829417
Bq         0.7999801992     2.3229667637     0.2043352542
Bq         0.6986485279     2.3573611593     0.8961075563
Bq         0.8144561523     2.3180532786     0.1055106396
Bq         0.6841725749     2.3622746444     0.9949321709
Bq         0.8289321053     2.3131397936     0.0066860250
Bq         0.7565523401     2.3377072190     0.5008090979
Bq         0.7427885210     2.4424999194     0.5947721077
Bq         0.7717404271     2.4326729493     0.3971228786
Bq         0.7283125679     2.4474134045     0.6935967223
Bq         0.7862163801     2.4277594642     0.2982982640
Bq         0.7138366149     2.4523268896     0.7924213369
Bq         0.8006923332     2.4228459791     0.1994736494
Bq         0.6993606618     2.4572403747     0.8912459515
Bq         0.8151682862     2.4179324940     0.1006490348
Bq         0.6848847088     2.4621538598     0.9900705661
Bq         0.8296442392     2.4130190089     0.0018244202
Bq         0.7572644740     2.4375864343     0.4959474932
Bq         0.7435006549     2.5423791348     0.5899105030
Bq         0.7724525610     2.5325521646     0.3922612738
Bq         0.7290247019     2.5472926199     0.6887351176
Bq         0.7869285140     2.5276386796     0.2934366592
Bq         0.7145487488     2.5522061050     0.7875597322
Bq         0.8014044671     2.5227251945     0.1946120446
Bq         0.7000727958     2.5571195900     0.8863843467
Bq         0.8158804201     2.5178117094     0.0957874301
Bq         0.6855968427     2.5620330751     0.9852089613
Bq         0.8303563732     2.5128982243    -0.0030371845
Bq         0.7579766080     2.5374656497     0.4910858884
Bq         0.7442127889     2.6422583502     0.5850488982
Bq         0.7731646949     2.6324313800     0.3873996690
Bq         0.7297368358     2.6471718353     0.6838735128
Bq         0.7876406480     2.6275178949     0.2885750545
Bq         0.7152608828     2.6520853203     0.7826981274
Bq         0.8021166010     2.6226044098     0.1897504399
Bq         0.7007849297     2.6569988054     0.8815227420
Bq         0.8165925541     2.6176909248     0.0909258253
Bq         0.6863089767     2.6619122905     0.9803473566
Bq         0.8310685071     2.6127774397    -0.0078987893
Bq         0.7586887419     2.6373448651     0.4862242836
Bq         0.7449249228     2.7421375656     0.5801872934
Bq         0.7738768289     2.7323105954     0.3825380643
Bq         0.7304489698     2.7470510506     0.6790119080
Bq         0.7883527819     2.7273971103     0.2837134497
Bq         0.7159730167     2.7519645357     0.7778365226
Bq         0.8028287350     2.7224836252     0.1848888351
Bq         0.7014970637     2.7568780208     0.8766611372
Bq         0.8173046880     2.7175701401     0.0860642205
Bq         0.6870211106     2.7617915059     0.9754857518
Bq         0.8317806411     2.7126566551    -0.0127603941
Bq         0.7594008758     2.7372240805     0.4813626789
Bq         0.7456370567     2.8420167809     0.5753256887
Bq         0.7745889628     2.8321898108     0.3776764595
Bq         0.7311611037     2.8469302660     0.6741503033
Bq         0.7890649159     2.8272763257     0.2788518449
Bq         0.7166851507     2.8518437511     0.7729749179
Bq         0.8035408689     2.8223628406     0.1800272303
Bq         0.7022091976     2.8567572362     0.8717995324
Bq         0.8180168220     2.8174493555     0.0812026158
Bq         0.6877332446     2.8616707213     0.9706241470
Bq         0.8324927750     2.8125358704    -0.0176219988
Bq         0.7601130098     2.8371032959     0.4765010741
Bq         0.7463491907     2.9418959963     0.5704640839
Bq         0.7753010968     2.9320690261     0.3728148547
Bq         0.7318732376     2.9468094814     0.6692886985
Bq         0.7897770498     2.9271555411     0.2739902402
Bq         0.7173972846     2.9517229665     0.7681133131
Bq         0.8042530029     2.9222420560     0.1751656256
Bq         0.7029213316     2.9566364516     0.8669379277
Bq         0.8187289559     2.9173285709     0.0763410110
Bq         0.6884453785     2.9615499366     0.9657625423
Bq         0.8332049089     2.9124150858    -0.0224836036
Bq         0.7608251437     2.9369825112     0.4716394693
Bq         0.7470613246     3.0417752117     0.5656024791
Bq         0.7760132307     3.0319482415     0.3679532500
Bq         0.7325853716     3.0466886968     0.6644270937
Bq         0.7904891838     3.0270347564     0.2691286354
Bq         0.7181094185     3.0516021819     0.7632517083
Bq         0.8049651368     3.0221212714     0.1703040208
Bq         0.7036334655     3.0565156669     0.8620763229
Bq         0.8194410898     3.0172077863     0.0714794062
Bq         0.6891575124     3.0614291520     0.9609009375
Bq         0.8339170429     3.0122943012    -0.0273452084
Bq         0.7615372777     3.0368617266     0.4667778646
Bq         0.7477734586     3.1416544271     0.5607408744
Bq         0.7767253647     3.1318274569     0.3630916452
Bq         0.7332975055     3.1465679121     0.6595654890
Bq         0.7912013177     3.1269139718     0.2642670306
Bq         0.7188215525     3.1514813972     0.7583901036
Bq         0.8056772707     3.1220004867     0.1654424160
Bq         0.7043455994     3.1563948823     0.8572147181
Bq         0.8201532238     3.1170870017     0.0666178015
Bq         0.6898696464     3.1613083674     0.9560393327
Bq         0.8346291768     3.1121735166    -0.0322068131
Bq         0.7622494116     3.1367409420     0.4619162598
Bq         0.7484855925     3.2415336424     0.5558792696
Bq         0.7774374986     3.2317066723     0.3582300404
Bq         0.7340096395     3.2464471275     0.6547038842
Bq         0.7919134516     3.2267931872     0.2594054259
Bq         0.7195336864     3.2513606126     0.7535284988
Bq         0.8063894047     3.2218797021     0.1605808113
Bq         0.7050577334     3.2562740977     0.8523531134
Bq         0.8208653577     3.2169662170     0.0617561967
Bq         0.6905817803     3.2611875828     0.9511777280
Bq         0.8353413108     3.2120527319    -0.0370684179
Bq         0.7629615456     3.2366201574     0.4570546550
Bq         0.7491977264     3.3414128578     0.5510176648
Bq         0.7781496325     3.3315858877     0.3533684357
Bq         0.7347217734     3.3463263429     0.6498422794
Bq         0.7926255856     3.3266724026     0.2545438211
Bq         0.7202458204     3.3512398280     0.7486668940
Bq         0.8071015386     3.3217589175     0.1557192065
Bq         0.7057698673     3.3561533131     0.8474915086
Bq         0.8215774917     3.3168454324     0.0568945919
Bq         0.6912939143     3.3610667981     0.9463161232
Bq         0.8360534447     3.3119319473    -0.0419300227
Bq         0.7636736795     3.3364993727     0.4521930503
Bq         0.7499098604     3.4412920732     0.5461560601
Bq         0.7788617665     3.4314651030     0.3485068309
Bq         0.7354339073     3.4462055583     0.6449806747
Bq         0.7933377195     3.4265516179     0.2496822163
Bq         0.7209579543     3.4511190434     0.7438052893
Bq         0.8078136726     3.4216381329     0.1508576017
Bq         0.7064820013     3.4560325284     0.8426299038
Bq         0.8222896256     3.4167246478     0.0520329872
Bq         0.6920060482     3.4609460135     0.9414545184
Bq         0.8367655787     3.4118111627    -0.0467916274
Bq         0.7643858134     3.4363785881     0.4473314455
Bq         0.7506219943     3.5411712886     0.5412944553
Bq         0.7795739004     3.5313443184     0.3436452261
Bq         0.7361460413     3.5460847737     0.6401190699
Bq         0.7940498535     3.5264308333     0.2448206116
Bq         0.7216700882     3.5509982587     0.7389436845
Bq         0.8085258065     3.5215173482     0.1459959970
Bq         0.7071941352     3.5559117438     0.8377682991
Bq         0.8230017596     3.5166038632     0.0471713824
Bq         0.6927181822     3.5608252289     0.9365929137
Bq         0.8374777126     3.5116903781    -0.0516532322
Bq         0.7650979474     3.5362578035     0.4424698407
Bq         0.7513341283     3.6410505039     0.5364328506
Bq         0.7802860344     3.6312235338     0.3387836214
Bq         0.7368581752     3.6459639890     0.6352574651
Bq         0.7947619874     3.6263100487     0.2399590068
Bq         0.7223822222     3.6508774741     0.7340820797
Bq         0.8092379405     3.6213965636     0.1411343922
Bq         0.7079062691     3.6557909592     0.8329066943
Bq         0.8237138935     3.6164830785     0.0423097776
Bq         0.6934303161     3.6607044443     0.9317313089
Bq         0.8381898465     3.6115695935    -0.0565148370
Bq         0.7658100813     3.6361370189     0.4376082360
Bq         0.7520462622     3.7409297193     0.5315712458
Bq         0.7809981683     3.7311027492     0.3339220166
Bq         0.7375703092     3.7458432044     0.6303958604
Bq         0.7954741213     3.7261892641     0.2350974020
Bq         0.7230943561     3.7507566895     0.7292204750
Bq         0.8099500744     3.7212757790     0.1362727874
Bq         0.7086184031     3.7556701746     0.8280450895
Bq         0.8244260274     3.7163622939     0.0374481729
Bq         0.6941424500     3.7605836597     0.9268697041
Bq         0.8389019805     3.7114488088    -0.0613764417
Bq         0.7665222153     3.7360162342     0.4327466312
Bq         0.7527583962     3.8408089347     0.5267096410

1
2
3
4
5
6
7
8
9
10
11
12
13
14
15
16
17
18
19
20
21
22
23
24
25
26
27
28
29
30
31
32
33
34
35
36
37
38
39
40
41
42
43
44
45
46
47
48
49
50
51
52
53
54
55
56
57
58
59
60
61
62
63
64
65
66
67
68
69
70
71
72
73
74
75
76
77
78
79
80
81
82
83
84
85
86
87
88
89
90
91
92
93
94
95
96
97
98
99
100
101
102
103
104
105
106
107
108
109
110
111
112
113
114
115
116
117
118
119
120
121
122
123
124
125
126
127
128
129
130
131
132
133
134
135
136
137
138
139
140
141
142
143
144
145
146
147
148
149
150
151
152
153
154
155
156
157
158
159
160
161
162
163
164
165
166
167
168
169
170
171
172
173
174
175
176
177
178
179
180
181
182
183
184
185
186
187
188
189
190
191
192
193
194
195
196
197
198
199
200
201
202
203
204
205
206
207
208
209
210
211
212
213
214
215
216
217
218
219
220
221
222
223
224
225
226
227
228
229
230
231
232
233
234
235
236

