%nproc=8
%mem=1000MB
# rb3lyp/6-311+g** NMR geom=connectivity

Title

0 1
C    -4.0500558   -0.5771862    0.8136712
H    -5.0263804   -1.0082727    1.0024760
C    -3.9381552    0.6617804    0.2400876
H    -4.8252424    1.2338890   -0.0111295
C    -2.6768410    1.2433246    0.0057578
C    -1.4974121    0.5051527    0.2848253
C    -1.6508332   -0.7338728    0.9404026
H    -0.7713646   -1.2730967    1.2633753
C    -2.8898548   -1.2624035    1.1994307
H    -2.9683706   -2.2124563    1.7152676
C    -2.5773185    2.5963696   -0.4192930
H    -3.4870728    3.1412239   -0.6474055
C    -1.3741895    3.2147896   -0.4364030
H    -1.2997315    4.2742019   -0.6578144
C    -0.1719488    2.4994090   -0.1734588
C    -0.2043917    1.1018437    0.0192689
C     1.0513491    3.2042560   -0.0676222
H     1.0427344    4.2819499   -0.1896997
C     2.1942091    2.5487446    0.2579577
H     3.1168527    3.0912848    0.4334727
C     2.2216473    1.1336562    0.2934990
C     1.0486931    0.3945528    0.0302412
C     3.4483363    0.4614633    0.5573939
H     4.3095794    1.0606054    0.8334846
C     3.5427346   -0.8855926    0.4749463
H     4.4731467   -1.3939704    0.7038822
C     2.4490052   -1.6474447   -0.0196319
C     1.2150704   -1.0057258   -0.3013573
C     0.2531113   -1.7434440   -1.0216591
H    -0.6541356   -1.2535051   -1.3462847
C     0.4494193   -3.0628597   -1.3413779
H    -0.3083162   -3.5944309   -1.9054060
C     1.6251726   -3.7207967   -0.9552541
H     1.7670048   -4.7687404   -1.1927019
C     2.6109872   -3.0144177   -0.3183050
H     3.5525612   -3.4902813   -0.0646367
Bq         1.6802093233    -3.5426364693     0.0069546813
Bq         1.9193799060    -3.3829425627    -0.5196336670
Bq         1.6403475595    -3.5692521204     0.0947194060
Bq         1.9592416698    -3.3563269116    -0.6073983917
Bq         1.6004857957    -3.5958677715     0.1824841307
Bq         1.9991034336    -3.3297112605    -0.6951631164
Bq         1.7997946147    -3.4627895160    -0.2563394929
Bq         1.7489263775    -3.3930121844    -0.1443415177
Bq         1.8286499051    -3.3397808822    -0.3198709671
Bq         1.7090646137    -3.4196278355    -0.0565767930
Bq         1.8685116689    -3.3131652311    -0.4076356918
Bq         1.6692028499    -3.4462434866     0.0311879317
Bq         1.9083734327    -3.2865495800    -0.4954004166
Bq         1.6293410862    -3.4728591377     0.1189526564
Bq         1.9482351965    -3.2599339288    -0.5831651413
Bq         1.5894793224    -3.4994747888     0.2067173811
Bq         1.9880969602    -3.2333182777    -0.6709298660
Bq         1.7887881413    -3.3663965333    -0.2321062424
Bq         1.7379199042    -3.2966192017    -0.1201082672
Bq         1.8176434317    -3.2433878995    -0.2956377167
Bq         1.6980581404    -3.3232348528    -0.0323435425
Bq         1.8575051955    -3.2167722484    -0.3834024414
Bq         1.6581963766    -3.3498505039     0.0554211822
Bq         1.8973669593    -3.1901565972    -0.4711671661
Bq         1.6183346128    -3.3764661550     0.1431859069
Bq         1.9372287231    -3.1635409461    -0.5589318908
Bq         1.5784728490    -3.4030818061     0.2309506316
Bq         1.9770904869    -3.1369252950    -0.6466966155
Bq         1.7777816679    -3.2700035506    -0.2078729920
Bq         1.7269134308    -3.2002262190    -0.0958750168
Bq         1.8066369584    -3.1469949167    -0.2714044662
Bq         1.6870516670    -3.2268418701    -0.0081102921
Bq         1.8464987221    -3.1203792656    -0.3591691909
Bq         1.6471899032    -3.2534575212     0.0796544326
Bq         1.8863604859    -3.0937636145    -0.4469339156
Bq         1.6073281394    -3.2800731723     0.1674191574
Bq         1.9262222497    -3.0671479634    -0.5346986404
Bq         1.5674663756    -3.3066888234     0.2551838821
Bq         1.9660840135    -3.0405323123    -0.6224633651
Bq         1.7667751946    -3.1736105679    -0.1836397415
Bq         1.7159069574    -3.1038332362    -0.0716417663
Bq         1.7956304850    -3.0506019340    -0.2471712158
Bq         1.6760451936    -3.1304488874     0.0161229584
Bq         1.8354922488    -3.0239862829    -0.3349359405
Bq         1.6361834298    -3.1570645385     0.1038876831
Bq         1.8753540126    -2.9973706318    -0.4227006652
Bq         1.5963216660    -3.1836801896     0.1916524078
Bq         1.9152157763    -2.9707549807    -0.5104653899
Bq         1.5564599023    -3.2102958407     0.2794171325
Bq         1.9550775401    -2.9441393296    -0.5982301146
Bq         1.7557687212    -3.0772175851    -0.1594064910
Bq         1.7049004840    -3.0074402535    -0.0474085159
Bq         1.7846240116    -2.9542089513    -0.2229379653
Bq         1.6650387202    -3.0340559046     0.0403562088
Bq         1.8244857754    -2.9275933002    -0.3107026900
Bq         1.6251769565    -3.0606715558     0.1281209336
Bq         1.8643475392    -2.9009776491    -0.3984674147
Bq         1.5853151927    -3.0872872069     0.2158856583
Bq         1.9042093030    -2.8743619980    -0.4862321394
Bq         1.5454534289    -3.1139028580     0.3036503830
Bq         1.9440710668    -2.8477463469    -0.5739968641
Bq         1.7447622478    -2.9808246024    -0.1351732406
Bq         1.6938940107    -2.9110472708    -0.0231752654
Bq         1.7736175382    -2.8578159686    -0.1987047148
Bq         1.6540322469    -2.9376629219     0.0645894593
Bq         1.8134793020    -2.8312003175    -0.2864694396
Bq         1.6141704831    -2.9642785730     0.1523541840
Bq         1.8533410658    -2.8045846664    -0.3742341643
Bq         1.5743087193    -2.9908942241     0.2401189087
Bq         1.8932028296    -2.7779690153    -0.4619988890
Bq         1.5344469555    -3.0175098753     0.3278836334
Bq         1.9330645934    -2.7513533642    -0.5497636137
Bq         1.7337557745    -2.8844316197    -0.1109399901
Bq         1.6828875373    -2.8146542881     0.0010579850
Bq         1.7626110649    -2.7614229859    -0.1744714644
Bq         1.6430257735    -2.8412699392     0.0888227098
Bq         1.8024728287    -2.7348073348    -0.2622361891
Bq         1.6031640097    -2.8678855903     0.1765874345
Bq         1.8423345924    -2.7081916837    -0.3500009138
Bq         1.5633022459    -2.8945012414     0.2643521592
Bq         1.8821963562    -2.6815760326    -0.4377656385
Bq         1.5234404821    -2.9211168925     0.3521168839
Bq         1.9220581200    -2.6549603815    -0.5255303632
Bq         1.7227493011    -2.7880386370    -0.0867067397
Bq         1.6718810639    -2.7182613054     0.0252912355
Bq         1.7516045915    -2.6650300032    -0.1502382139
Bq         1.6320193001    -2.7448769565     0.1130559602
Bq         1.7914663553    -2.6384143521    -0.2380029386
Bq         1.5921575363    -2.7714926076     0.2008206849
Bq         1.8313281191    -2.6117987010    -0.3257676633
Bq         1.5522957726    -2.7981082587     0.2885854096
Bq         1.8711898829    -2.5851830499    -0.4135323881
Bq         1.5124340088    -2.8247239098     0.3763501344
Bq         1.9110516466    -2.5585673988    -0.5012971128
Bq         1.7117428277    -2.6916456543    -0.0624734892
Bq         1.6608745905    -2.6218683227     0.0495244860
Bq         1.7405981181    -2.5686370205    -0.1260049635
Bq         1.6210128268    -2.6484839738     0.1372892107
Bq         1.7804598819    -2.5420213694    -0.2137696882
Bq         1.5811510630    -2.6750996249     0.2250539354
Bq         1.8203216457    -2.5154057183    -0.3015344129
Bq         1.5412892992    -2.7017152760     0.3128186601
Bq         1.8601834095    -2.4887900672    -0.3892991376
Bq         1.5014275354    -2.7283309271     0.4005833848
Bq         1.9000451733    -2.4621744160    -0.4770638623
Bq         1.7007363543    -2.5952526716    -0.0382402388
Bq         1.6498681172    -2.5254753400     0.0737577364
Bq         1.7295916448    -2.4722440378    -0.1017717130
Bq         1.6100063534    -2.5520909911     0.1615224611
Bq         1.7694534085    -2.4456283867    -0.1895364377
Bq         1.5701445896    -2.5787066422     0.2492871858
Bq         1.8093151723    -2.4190127355    -0.2773011624
Bq         1.5302828258    -2.6053222933     0.3370519106
Bq         1.8491769361    -2.3923970844    -0.3650658871
Bq         1.4904210620    -2.6319379444     0.4248166353
Bq         1.8890386999    -2.3657814333    -0.4528306119
Bq         1.6897298810    -2.4988596889    -0.0140069883
Bq         1.6388616438    -2.4290823573     0.0979909869
Bq         1.7185851714    -2.3758510550    -0.0775384625
Bq         1.5989998800    -2.4556980084     0.1857557116
Bq         1.7584469352    -2.3492354039    -0.1653031873
Bq         1.5591381162    -2.4823136595     0.2735204363
Bq         1.7983086990    -2.3226197528    -0.2530679120
Bq         1.5192763524    -2.5089293106     0.3612851610
Bq         1.8381704627    -2.2960041017    -0.3408326367
Bq         1.4794145887    -2.5355449617     0.4490498857
Bq         1.8780322265    -2.2693884506    -0.4285973614
Bq         1.6787234076    -2.4024667062     0.0102262622
Bq         1.6278551704    -2.3326893746     0.1222242373
Bq         1.7075786980    -2.2794580723    -0.0533052121
Bq         1.5879934066    -2.3593050257     0.2099889620
Bq         1.7474404618    -2.2528424212    -0.1410699368
Bq         1.5481316429    -2.3859206768     0.2977536868
Bq         1.7873022256    -2.2262267701    -0.2288346615
Bq         1.5082698791    -2.4125363279     0.3855184115
Bq         1.8271639894    -2.1996111190    -0.3165993862
Bq         1.4684081153    -2.4391519790     0.4732831362
Bq         1.8670257532    -2.1729954679    -0.4043641109
Bq         1.6677169342    -2.3060737234     0.0344595126
Bq         1.6168486971    -2.2362963918     0.1464574878
Bq         1.6965722246    -2.1830650896    -0.0290719616
Bq         1.5769869333    -2.2629120429     0.2342222125
Bq         1.7364339884    -2.1564494385    -0.1168366863
Bq         1.5371251695    -2.2895276941     0.3219869372
Bq         1.7762957522    -2.1298337874    -0.2046014111
Bq         1.4972634057    -2.3161433452     0.4097516619
Bq         1.8161575160    -2.1032181363    -0.2923661358
Bq         1.4574016419    -2.3427589963     0.4975163866
Bq         1.8560192798    -2.0766024852    -0.3801308605
Bq         1.6567104608    -2.2096807407     0.0586927631
Bq         1.6058422237    -2.1399034091     0.1706907383
Bq         1.6855657513    -2.0866721069    -0.0048387112
Bq         1.5659804599    -2.1665190602     0.2584554630
Bq         1.7254275150    -2.0600564558    -0.0926034359
Bq         1.5261186961    -2.1931347113     0.3462201877
Bq         1.7652892788    -2.0334408047    -0.1803681606
Bq         1.4862569323    -2.2197503624     0.4339849124
Bq         1.8051510426    -2.0068251536    -0.2681328853
Bq         1.4463951685    -2.2463660136     0.5217496371
Bq         1.8450128064    -1.9802095025    -0.3558976100
Bq         1.6457039875    -2.1132877580     0.0829260135
Bq         1.5948357503    -2.0435104264     0.1949239887
Bq         1.6745592779    -1.9902791242     0.0193945393
Bq         1.5549739865    -2.0701260775     0.2826887134
Bq         1.7144210417    -1.9636634731    -0.0683701854
Bq         1.5151122227    -2.0967417286     0.3704534381
Bq         1.7542828055    -1.9370478220    -0.1561349101
Bq         1.4752504590    -2.1233573797     0.4582181628
Bq         1.7941445693    -1.9104321709    -0.2438996349
Bq         1.4353886952    -2.1499730308     0.5459828876
Bq         1.8340063330    -1.8838165198    -0.3316643596
Bq         1.6346975141    -2.0168947753     0.1071592640
Bq         1.5838292769    -1.9471174437     0.2191572392
Bq         1.6635528045    -1.8938861415     0.0436277897
Bq         1.5439675132    -1.9737330948     0.3069219639
Bq         1.7034145683    -1.8672704904    -0.0441369350
Bq         1.5041057494    -2.0003487459     0.3946866886
Bq         1.7432763321    -1.8406548393    -0.1319016597
Bq         1.4642439856    -2.0269643970     0.4824514133
Bq         1.7831380959    -1.8140391882    -0.2196663844
Bq         1.4243822218    -2.0535800481     0.5702161380
Bq         1.8229998597    -1.7874235371    -0.3074311091
Bq         1.6236910407    -1.9205017926     0.1313925145
Bq         1.5728228036    -1.8507244610     0.2433904896
Bq         1.6525463311    -1.7974931588     0.0678610402
Bq         1.5329610398    -1.8773401121     0.3311552143
Bq         1.6924080949    -1.7708775077    -0.0199036845
Bq         1.4930992760    -1.9039557632     0.4189199390
Bq         1.7322698587    -1.7442618566    -0.1076684092
Bq         1.4532375122    -1.9305714143     0.5066846638
Bq         1.7721316225    -1.7176462055    -0.1954331339
Bq         1.4133757484    -1.9571870654     0.5944493885
Bq         1.8119933863    -1.6910305543    -0.2831978587
Bq         1.6126845674    -1.8241088099     0.1556257649
Bq         1.5618163302    -1.7543314783     0.2676237401
Bq         1.6415398578    -1.7011001761     0.0920942907
Bq         1.5219545664    -1.7809471294     0.3553884648
Bq         1.6814016216    -1.6744845250     0.0043295659
Bq         1.4820928026    -1.8075627805     0.4431531895
Bq         1.7212633853    -1.6478688739    -0.0834351588

1
2
3
4
5
6
7
8
9
10
11
12
13
14
15
16
17
18
19
20
21
22
23
24
25
26
27
28
29
30
31
32
33
34
35
36
37
38
39
40
41
42
43
44
45
46
47
48
49
50
51
52
53
54
55
56
57
58
59
60
61
62
63
64
65
66
67
68
69
70
71
72
73
74
75
76
77
78
79
80
81
82
83
84
85
86
87
88
89
90
91
92
93
94
95
96
97
98
99
100
101
102
103
104
105
106
107
108
109
110
111
112
113
114
115
116
117
118
119
120
121
122
123
124
125
126
127
128
129
130
131
132
133
134
135
136
137
138
139
140
141
142
143
144
145
146
147
148
149
150
151
152
153
154
155
156
157
158
159
160
161
162
163
164
165
166
167
168
169
170
171
172
173
174
175
176
177
178
179
180
181
182
183
184
185
186
187
188
189
190
191
192
193
194
195
196
197
198
199
200
201
202
203
204
205
206
207
208
209
210
211
212
213
214
215
216
217
218
219
220
221
222
223
224
225
226
227
228
229
230
231
232
233
234
235
236

