%nproc=8
%mem=1000MB
# rb3lyp/6-311+g** NMR geom=connectivity

Title

0 1
C    -4.0500558   -0.5771862    0.8136712
H    -5.0263804   -1.0082727    1.0024760
C    -3.9381552    0.6617804    0.2400876
H    -4.8252424    1.2338890   -0.0111295
C    -2.6768410    1.2433246    0.0057578
C    -1.4974121    0.5051527    0.2848253
C    -1.6508332   -0.7338728    0.9404026
H    -0.7713646   -1.2730967    1.2633753
C    -2.8898548   -1.2624035    1.1994307
H    -2.9683706   -2.2124563    1.7152676
C    -2.5773185    2.5963696   -0.4192930
H    -3.4870728    3.1412239   -0.6474055
C    -1.3741895    3.2147896   -0.4364030
H    -1.2997315    4.2742019   -0.6578144
C    -0.1719488    2.4994090   -0.1734588
C    -0.2043917    1.1018437    0.0192689
C     1.0513491    3.2042560   -0.0676222
H     1.0427344    4.2819499   -0.1896997
C     2.1942091    2.5487446    0.2579577
H     3.1168527    3.0912848    0.4334727
C     2.2216473    1.1336562    0.2934990
C     1.0486931    0.3945528    0.0302412
C     3.4483363    0.4614633    0.5573939
H     4.3095794    1.0606054    0.8334846
C     3.5427346   -0.8855926    0.4749463
H     4.4731467   -1.3939704    0.7038822
C     2.4490052   -1.6474447   -0.0196319
C     1.2150704   -1.0057258   -0.3013573
C     0.2531113   -1.7434440   -1.0216591
H    -0.6541356   -1.2535051   -1.3462847
C     0.4494193   -3.0628597   -1.3413779
H    -0.3083162   -3.5944309   -1.9054060
C     1.6251726   -3.7207967   -0.9552541
H     1.7670048   -4.7687404   -1.1927019
C     2.6109872   -3.0144177   -0.3183050
H     3.5525612   -3.4902813   -0.0646367
Bq         0.5476573189     0.9411059529     0.8103938095
Bq         0.5553412815     0.8920073182     0.6166664733
Bq         0.5438153376     0.9656552703     0.9072574776
Bq         0.5591832629     0.8674580008     0.5198028052
Bq         0.5399733562     0.9902045877     1.0041211457
Bq         0.5630252442     0.8429086834     0.4229391372
Bq         0.5361313749     1.0147539051     1.1009848138
Bq         0.5668672255     0.8183593660     0.3260754691
Bq         0.5322893936     1.0393032224     1.1978484819
Bq         0.5707092069     0.7938100487     0.2292118010
Bq         0.5514993002     0.9165566355     0.7135301414
Bq         0.5486302731     1.0380457849     0.7858637801
Bq         0.5563142358     0.9889471501     0.5921364439
Bq         0.5447882918     1.0625951022     0.8827274482
Bq         0.5601562171     0.9643978327     0.4952727758
Bq         0.5409463104     1.0871444196     0.9795911163
Bq         0.5639981984     0.9398485154     0.3984091077
Bq         0.5371043291     1.1116937370     1.0764547844
Bq         0.5678401798     0.9152991980     0.3015454396
Bq         0.5332623478     1.1362430544     1.1733184525
Bq         0.5716821611     0.8907498806     0.2046817716
Bq         0.5524722544     1.0134964675     0.6890001120
Bq         0.5496032273     1.1349856168     0.7613337507
Bq         0.5572871900     1.0858869821     0.5676064145
Bq         0.5457612460     1.1595349342     0.8581974188
Bq         0.5611291713     1.0613376647     0.4707427464
Bq         0.5419192647     1.1840842516     0.9550610868
Bq         0.5649711526     1.0367883473     0.3738790783
Bq         0.5380772833     1.2086335689     1.0519247549
Bq         0.5688131340     1.0122390299     0.2770154102
Bq         0.5342353020     1.2331828863     1.1487884230
Bq         0.5726551153     0.9876897125     0.1801517421
Bq         0.5534452087     1.1104362994     0.6644700826
Bq         0.5505761816     1.2319254487     0.7368037212
Bq         0.5582601442     1.1828268140     0.5430763851
Bq         0.5467342002     1.2564747661     0.8336673893
Bq         0.5621021255     1.1582774966     0.4462127170
Bq         0.5428922189     1.2810240835     0.9305310574
Bq         0.5659441069     1.1337281792     0.3493490489
Bq         0.5390502376     1.3055734009     1.0273947255
Bq         0.5697860882     1.1091788619     0.2524853808
Bq         0.5352082562     1.3301227182     1.1242583936
Bq         0.5736280695     1.0846295445     0.1556217127
Bq         0.5544181629     1.2073761314     0.6399400531
Bq         0.5515491358     1.3288652807     0.7122736918
Bq         0.5592330984     1.2797666459     0.5185463556
Bq         0.5477071545     1.3534145981     0.8091373599
Bq         0.5630750798     1.2552173286     0.4216826875
Bq         0.5438651731     1.3779639154     0.9060010280
Bq         0.5669170611     1.2306680112     0.3248190195
Bq         0.5400231918     1.4025132328     1.0028646961
Bq         0.5707590424     1.2061186938     0.2279553514
Bq         0.5361812105     1.4270625502     1.0997283642
Bq         0.5746010238     1.1815693764     0.1310916833
Bq         0.5553911171     1.3043159633     0.6154100237
Bq         0.5525220900     1.4258051126     0.6877436624
Bq         0.5602060527     1.3767064779     0.4940163262
Bq         0.5486801087     1.4503544300     0.7846073305
Bq         0.5640480340     1.3521571605     0.3971526581
Bq         0.5448381273     1.4749037474     0.8814709986
Bq         0.5678900153     1.3276078431     0.3002889900
Bq         0.5409961460     1.4994530647     0.9783346667
Bq         0.5717319966     1.3030585257     0.2034253219
Bq         0.5371541647     1.5240023821     1.0751983347
Bq         0.5755739780     1.2785092084     0.1065616538
Bq         0.5563640713     1.4012557952     0.5908799943
Bq         0.5534950442     1.5227449446     0.6632136330
Bq         0.5611790069     1.4736463098     0.4694862968
Bq         0.5496530629     1.5472942619     0.7600773010
Bq         0.5650209882     1.4490969924     0.3726226287
Bq         0.5458110816     1.5718435793     0.8569409691
Bq         0.5688629695     1.4245476751     0.2757589606
Bq         0.5419691002     1.5963928967     0.9538046372
Bq         0.5727049509     1.3999983577     0.1788952925
Bq         0.5381271189     1.6209422141     1.0506683053
Bq         0.5765469322     1.3754490403     0.0820316244
Bq         0.5573370256     1.4981956272     0.5663499649
Bq         0.5544679985     1.6196847765     0.6386836035
Bq         0.5621519611     1.5705861417     0.4449562673
Bq         0.5506260171     1.6442340939     0.7355472716
Bq         0.5659939424     1.5460368244     0.3480925993
Bq         0.5467840358     1.6687834113     0.8324109397
Bq         0.5698359238     1.5214875070     0.2512289312
Bq         0.5429420545     1.6933327286     0.9292746078
Bq         0.5736779051     1.4969381896     0.1543652631
Bq         0.5391000731     1.7178820460     1.0261382759
Bq         0.5775198864     1.4723888722     0.0575015950
Bq         0.5583099798     1.5951354591     0.5418199354
Bq         0.5554409527     1.7166246084     0.6141535741
Bq         0.5631249153     1.6675259737     0.4204262379
Bq         0.5515989713     1.7411739258     0.7110172422
Bq         0.5669668967     1.6429766563     0.3235625698
Bq         0.5477569900     1.7657232432     0.8078809103
Bq         0.5708088780     1.6184273389     0.2266989017
Bq         0.5439150087     1.7902725606     0.9047445784
Bq         0.5746508593     1.5938780216     0.1298352337
Bq         0.5400730274     1.8148218779     1.0016082465
Bq         0.5784928407     1.5693287042     0.0329715656
Bq         0.5592829340     1.6920752911     0.5172899060
Bq         0.5564139069     1.8135644404     0.5896235447
Bq         0.5640978696     1.7644658056     0.3958962085
Bq         0.5525719256     1.8381137578     0.6864872128
Bq         0.5679398509     1.7399164882     0.2990325404
Bq         0.5487299442     1.8626630751     0.7833508809
Bq         0.5717818322     1.7153671709     0.2021688723
Bq         0.5448879629     1.8872123925     0.8802145489
Bq         0.5756238135     1.6908178535     0.1053052042
Bq         0.5410459816     1.9117617099     0.9770782170
Bq         0.5794657949     1.6662685361     0.0084415361
Bq         0.5602558882     1.7890151230     0.4927598766
Bq         0.5573868611     1.9105042723     0.5650935152
Bq         0.5650708238     1.8614056376     0.3713661791
Bq         0.5535448798     1.9350535897     0.6619571833
Bq         0.5689128051     1.8368563202     0.2745025110
Bq         0.5497028985     1.9596029071     0.7588208514
Bq         0.5727547864     1.8123070028     0.1776388429
Bq         0.5458609171     1.9841522244     0.8556845195
Bq         0.5765967678     1.7877576854     0.0807751748
Bq         0.5420189358     2.0087015418     0.9525481876
Bq         0.5804387491     1.7632083681    -0.0160884933
Bq         0.5612288425     1.8859549549     0.4682298472
Bq         0.5583598154     2.0074441043     0.5405634858
Bq         0.5660437780     1.9583454695     0.3468361496
Bq         0.5545178340     2.0319934216     0.6374271539
Bq         0.5698857593     1.9337961521     0.2499724816
Bq         0.5506758527     2.0565427390     0.7342908220
Bq         0.5737277407     1.9092468348     0.1531088135
Bq         0.5468338714     2.0810920564     0.8311544901
Bq         0.5775697220     1.8846975174     0.0562451454
Bq         0.5429918900     2.1056413738     0.9280181582
Bq         0.5814117033     1.8601482000    -0.0406185227
Bq         0.5622017967     1.9828947869     0.4436998177
Bq         0.5593327696     2.1043839362     0.5160334564
Bq         0.5670167322     2.0552853014     0.3223061202
Bq         0.5554907882     2.1289332536     0.6128971245
Bq         0.5708587136     2.0307359841     0.2254424521
Bq         0.5516488069     2.1534825709     0.7097607926
Bq         0.5747006949     2.0061866667     0.1285787840
Bq         0.5478068256     2.1780318883     0.8066244607
Bq         0.5785426762     1.9816373493     0.0317151159
Bq         0.5439648443     2.2025812057     0.9034881288
Bq         0.5823846575     1.9570880319    -0.0651485521
Bq         0.5631747509     2.0798346188     0.4191697883
Bq         0.5603057238     2.2013237681     0.4915034270
Bq         0.5679896865     2.1522251334     0.2977760908
Bq         0.5564637425     2.2258730855     0.5883670951
Bq         0.5718316678     2.1276758160     0.2009124227
Bq         0.5526217611     2.2504224029     0.6852307631
Bq         0.5756736491     2.1031264986     0.1040487546
Bq         0.5487797798     2.2749717203     0.7820944312
Bq         0.5795156304     2.0785771813     0.0071850865
Bq         0.5449377985     2.2995210376     0.8789580993
Bq         0.5833576118     2.0540278639    -0.0896785816
Bq         0.5641477051     2.1767744508     0.3946397589
Bq         0.5612786780     2.2982636001     0.4669733975
Bq         0.5689626407     2.2491649653     0.2732460614
Bq         0.5574366967     2.3228129174     0.5638370656
Bq         0.5728046220     2.2246156479     0.1763823933
Bq         0.5535947154     2.3473622348     0.6607007337
Bq         0.5766466033     2.2000663306     0.0795187252
Bq         0.5497527340     2.3719115522     0.7575644018
Bq         0.5804885847     2.1755170132    -0.0173449429
Bq         0.5459107527     2.3964608696     0.8544280699
Bq         0.5843305660     2.1509676958    -0.1142086110
Bq         0.5651206594     2.2737142827     0.3701097295
Bq         0.5622516322     2.3952034320     0.4424433681
Bq         0.5699355949     2.3461047973     0.2487160319
Bq         0.5584096509     2.4197527494     0.5393070362
Bq         0.5737775762     2.3215554799     0.1518523638
Bq         0.5545676696     2.4443020668     0.6361707043
Bq         0.5776195576     2.2970061625     0.0549886958
Bq         0.5507256883     2.4688513841     0.7330343724
Bq         0.5814615389     2.2724568451    -0.0418749723
Bq         0.5468837069     2.4934007015     0.8298980405
Bq         0.5853035202     2.2479075278    -0.1387386404
Bq         0.5660936136     2.3706541146     0.3455797000
Bq         0.5632245865     2.4921432640     0.4179133387
Bq         0.5709085491     2.4430446292     0.2241860025
Bq         0.5593826051     2.5166925813     0.5147770068
Bq         0.5747505305     2.4184953118     0.1273223344
Bq         0.5555406238     2.5412418987     0.6116406749
Bq         0.5785925118     2.3939459944     0.0304586663
Bq         0.5516986425     2.5657912161     0.7085043430
Bq         0.5824344931     2.3693966771    -0.0664050018
Bq         0.5478566612     2.5903405335     0.8053680110
Bq         0.5862764744     2.3448473597    -0.1632686699
Bq         0.5670665678     2.4675939466     0.3210496706
Bq         0.5641975407     2.5890830959     0.3933833093
Bq         0.5718815034     2.5399844611     0.1996559731
Bq         0.5603555594     2.6136324133     0.4902469773
Bq         0.5757234847     2.5154351438     0.1027923050
Bq         0.5565135780     2.6381817306     0.5871106454
Bq         0.5795654660     2.4908858264     0.0059286369
Bq         0.5526715967     2.6627310480     0.6839743135
Bq         0.5834074473     2.4663365090    -0.0909350312
Bq         0.5488296154     2.6872803654     0.7808379816
Bq         0.5872494287     2.4417871916    -0.1877986993
Bq         0.5680395220     2.5645337785     0.2965196412
Bq         0.5651704949     2.6860229278     0.3688532798
Bq         0.5728544576     2.6369242931     0.1751259437

1
2
3
4
5
6
7
8
9
10
11
12
13
14
15
16
17
18
19
20
21
22
23
24
25
26
27
28
29
30
31
32
33
34
35
36
37
38
39
40
41
42
43
44
45
46
47
48
49
50
51
52
53
54
55
56
57
58
59
60
61
62
63
64
65
66
67
68
69
70
71
72
73
74
75
76
77
78
79
80
81
82
83
84
85
86
87
88
89
90
91
92
93
94
95
96
97
98
99
100
101
102
103
104
105
106
107
108
109
110
111
112
113
114
115
116
117
118
119
120
121
122
123
124
125
126
127
128
129
130
131
132
133
134
135
136
137
138
139
140
141
142
143
144
145
146
147
148
149
150
151
152
153
154
155
156
157
158
159
160
161
162
163
164
165
166
167
168
169
170
171
172
173
174
175
176
177
178
179
180
181
182
183
184
185
186
187
188
189
190
191
192
193
194
195
196
197
198
199
200
201
202
203
204
205
206
207
208
209
210
211
212
213
214
215
216
217
218
219
220
221
222
223
224
225
226
227
228
229
230
231
232
233
234
235
236

