%nproc=8
%mem=1000MB
# rb3lyp/6-311+g** NMR geom=connectivity

Title

0 1
C    -4.0500558   -0.5771862    0.8136712
H    -5.0263804   -1.0082727    1.0024760
C    -3.9381552    0.6617804    0.2400876
H    -4.8252424    1.2338890   -0.0111295
C    -2.6768410    1.2433246    0.0057578
C    -1.4974121    0.5051527    0.2848253
C    -1.6508332   -0.7338728    0.9404026
H    -0.7713646   -1.2730967    1.2633753
C    -2.8898548   -1.2624035    1.1994307
H    -2.9683706   -2.2124563    1.7152676
C    -2.5773185    2.5963696   -0.4192930
H    -3.4870728    3.1412239   -0.6474055
C    -1.3741895    3.2147896   -0.4364030
H    -1.2997315    4.2742019   -0.6578144
C    -0.1719488    2.4994090   -0.1734588
C    -0.2043917    1.1018437    0.0192689
C     1.0513491    3.2042560   -0.0676222
H     1.0427344    4.2819499   -0.1896997
C     2.1942091    2.5487446    0.2579577
H     3.1168527    3.0912848    0.4334727
C     2.2216473    1.1336562    0.2934990
C     1.0486931    0.3945528    0.0302412
C     3.4483363    0.4614633    0.5573939
H     4.3095794    1.0606054    0.8334846
C     3.5427346   -0.8855926    0.4749463
H     4.4731467   -1.3939704    0.7038822
C     2.4490052   -1.6474447   -0.0196319
C     1.2150704   -1.0057258   -0.3013573
C     0.2531113   -1.7434440   -1.0216591
H    -0.6541356   -1.2535051   -1.3462847
C     0.4494193   -3.0628597   -1.3413779
H    -0.3083162   -3.5944309   -1.9054060
C     1.6251726   -3.7207967   -0.9552541
H     1.7670048   -4.7687404   -1.1927019
C     2.6109872   -3.0144177   -0.3183050
H     3.5525612   -3.4902813   -0.0646367
Bq        -3.3847693639     0.6404697484     0.8111788223
Bq        -3.3849524272     0.7740038581     0.8577471381
Bq        -3.3842444360     0.6870384240     0.6776457443
Bq        -3.3853064228     0.8174865751     0.9477978350
Bq        -3.3838904405     0.6435557070     0.5875950475
Bq        -3.3856604183     0.8609692921     1.0378485319
Bq        -3.3835364449     0.6000729900     0.4975443506
Bq        -3.3860144139     0.9044520091     1.1278992288
Bq        -3.3831824493     0.5565902730     0.4074936537
Bq        -3.3863684095     0.9479347261     1.2179499256
Bq        -3.3828284537     0.5131075560     0.3174429568
Bq        -3.3845984316     0.7305211410     0.7676964412
Bq        -3.3847814949     0.8640552507     0.8142647571
Bq        -3.3840735038     0.7770898167     0.6341633633
Bq        -3.3851354905     0.9075379677     0.9043154540
Bq        -3.3837195082     0.7336070997     0.5441126664
Bq        -3.3854894861     0.9510206847     0.9943661508
Bq        -3.3833655126     0.6901243827     0.4540619696
Bq        -3.3858434816     0.9945034017     1.0844168477
Bq        -3.3830115170     0.6466416657     0.3640112727
Bq        -3.3861974772     1.0379861187     1.1744675446
Bq        -3.3826575215     0.6031589487     0.2739605758
Bq        -3.3844274993     0.8205725337     0.7242140602
Bq        -3.3846105626     0.9541066434     0.7707823760
Bq        -3.3839025715     0.8671412094     0.5906809823
Bq        -3.3849645582     0.9975893604     0.8608330729
Bq        -3.3835485759     0.8236584924     0.5006302854
Bq        -3.3853185538     1.0410720774     0.9508837698
Bq        -3.3831945803     0.7801757754     0.4105795885
Bq        -3.3856725494     1.0845547944     1.0409344667
Bq        -3.3828405848     0.7366930584     0.3205288916
Bq        -3.3860265449     1.1280375114     1.1309851636
Bq        -3.3824865892     0.6932103414     0.2304781948
Bq        -3.3842565671     0.9106239264     0.6807316792
Bq        -3.3844396304     1.0441580361     0.7272999950
Bq        -3.3837316392     0.9571926021     0.5471986013
Bq        -3.3847936259     1.0876407531     0.8173506919
Bq        -3.3833776436     0.9137098850     0.4571479044
Bq        -3.3851476215     1.1311234701     0.9074013888
Bq        -3.3830236481     0.8702271680     0.3670972075
Bq        -3.3855016171     1.1746061871     0.9974520857
Bq        -3.3826696525     0.8267444510     0.2770465106
Bq        -3.3858556127     1.2180889041     1.0875027825
Bq        -3.3823156569     0.7832617340     0.1869958137
Bq        -3.3840856348     1.0006753191     0.6372492981
Bq        -3.3842686981     1.1342094287     0.6838176140
Bq        -3.3835607069     1.0472439947     0.5037162202
Bq        -3.3846226937     1.1776921457     0.7738683109
Bq        -3.3832067114     1.0037612777     0.4136655233
Bq        -3.3849766892     1.2211748627     0.8639190077
Bq        -3.3828527158     0.9602785607     0.3236148265
Bq        -3.3853306848     1.2646575797     0.9539697046
Bq        -3.3824987202     0.9167958437     0.2335641296
Bq        -3.3856846804     1.3081402968     1.0440204015
Bq        -3.3821447246     0.8733131267     0.1435134327
Bq        -3.3839147025     1.0907267117     0.5937669171
Bq        -3.3840977658     1.2242608214     0.6403352330
Bq        -3.3833897747     1.1372953874     0.4602338392
Bq        -3.3844517614     1.2677435384     0.7303859298
Bq        -3.3830357791     1.0938126704     0.3701831423
Bq        -3.3848057570     1.3112262554     0.8204366267
Bq        -3.3826817835     1.0503299534     0.2801324454
Bq        -3.3851597525     1.3547089724     0.9104873236
Bq        -3.3823277879     1.0068472364     0.1900817485
Bq        -3.3855137481     1.3981916894     1.0005380205
Bq        -3.3819737924     0.9633645194     0.1000310517
Bq        -3.3837437702     1.1807781044     0.5502845361
Bq        -3.3839268335     1.3143122141     0.5968528519
Bq        -3.3832188424     1.2273467801     0.4167514582
Bq        -3.3842808291     1.3577949311     0.6869035488
Bq        -3.3828648468     1.1838640631     0.3267007613
Bq        -3.3846348247     1.4012776481     0.7769542457
Bq        -3.3825108512     1.1403813461     0.2366500644
Bq        -3.3849888203     1.4447603651     0.8670049426
Bq        -3.3821568557     1.0968986291     0.1465993675
Bq        -3.3853428158     1.4882430821     0.9570556394
Bq        -3.3818028601     1.0534159120     0.0565486706
Bq        -3.3835728380     1.2708294971     0.5068021550
Bq        -3.3837559013     1.4043636067     0.5533704709
Bq        -3.3830479101     1.3173981727     0.3732690771
Bq        -3.3841098968     1.4478463237     0.6434211678
Bq        -3.3826939145     1.2739154557     0.2832183802
Bq        -3.3844638924     1.4913290408     0.7334718647
Bq        -3.3823399190     1.2304327387     0.1931676834
Bq        -3.3848178880     1.5348117578     0.8235225615
Bq        -3.3819859234     1.1869500217     0.1031169865
Bq        -3.3851718836     1.5782944748     0.9135732584
Bq        -3.3816319278     1.1434673047     0.0130662896
Bq        -3.3834019057     1.3608808897     0.4633197740
Bq        -3.3835849690     1.4944149994     0.5098880899
Bq        -3.3828769778     1.4074495654     0.3297866961
Bq        -3.3839389646     1.5378977164     0.5999387867
Bq        -3.3825229823     1.3639668484     0.2397359992
Bq        -3.3842929601     1.5813804334     0.6899894836
Bq        -3.3821689867     1.3204841314     0.1496853023
Bq        -3.3846469557     1.6248631504     0.7800401805
Bq        -3.3818149911     1.2770014144     0.0596346054
Bq        -3.3850009513     1.6683458674     0.8700908774
Bq        -3.3814609955     1.2335186974    -0.0304160914
Bq        -3.3832309734     1.4509322824     0.4198373930
Bq        -3.3834140367     1.5844663921     0.4664057088
Bq        -3.3827060456     1.4975009581     0.2863043151
Bq        -3.3837680323     1.6279491091     0.5564564057
Bq        -3.3823520500     1.4540182411     0.1962536182
Bq        -3.3841220279     1.6714318261     0.6465071026
Bq        -3.3819980544     1.4105355241     0.1062029213
Bq        -3.3844760234     1.7149145431     0.7365577995
Bq        -3.3816440588     1.3670528071     0.0161522244
Bq        -3.3848300190     1.7583972601     0.8266084964
Bq        -3.3812900633     1.3235700901    -0.0738984725
Bq        -3.3830600411     1.5409836751     0.3763550119
Bq        -3.3832431044     1.6745177848     0.4229233278
Bq        -3.3825351133     1.5875523507     0.2428219340
Bq        -3.3835971000     1.7180005018     0.5129740247
Bq        -3.3821811177     1.5440696337     0.1527712371
Bq        -3.3839510956     1.7614832188     0.6030247216
Bq        -3.3818271221     1.5005869167     0.0627205403
Bq        -3.3843050912     1.8049659358     0.6930754184
Bq        -3.3814731266     1.4571041997    -0.0273301566
Bq        -3.3846590867     1.8484486528     0.7831261153
Bq        -3.3811191310     1.4136214827    -0.1173808535
Bq        -3.3828891089     1.6310350678     0.3328726309
Bq        -3.3830721722     1.7645691774     0.3794409468
Bq        -3.3823641810     1.6776037434     0.1993395530
Bq        -3.3834261677     1.8080518944     0.4694916436
Bq        -3.3820101854     1.6341210264     0.1092888561
Bq        -3.3837801633     1.8515346114     0.5595423405
Bq        -3.3816561899     1.5906383094     0.0192381592
Bq        -3.3841341589     1.8950173284     0.6495930374
Bq        -3.3813021943     1.5471555924    -0.0708125377
Bq        -3.3844881545     1.9385000454     0.7396437343
Bq        -3.3809481987     1.5036728754    -0.1608632345
Bq        -3.3827181766     1.7210864604     0.2893902499
Bq        -3.3829012399     1.8546205701     0.3359585657
Bq        -3.3821932487     1.7676551361     0.1558571720
Bq        -3.3832552355     1.8981032871     0.4260092626
Bq        -3.3818392532     1.7241724191     0.0658064751
Bq        -3.3836092310     1.9415860041     0.5160599595
Bq        -3.3814852576     1.6806897021    -0.0242442218
Bq        -3.3839632266     1.9850687211     0.6061106564
Bq        -3.3811312620     1.6372069851    -0.1142949187
Bq        -3.3843172222     2.0285514381     0.6961613533
Bq        -3.3807772664     1.5937242681    -0.2043456156
Bq        -3.3825472443     1.8111378531     0.2459078688
Bq        -3.3827303076     1.9446719628     0.2924761847
Bq        -3.3820223165     1.8577065288     0.1123747909
Bq        -3.3830843032     1.9881546798     0.3825268816
Bq        -3.3816683209     1.8142238118     0.0223240940
Bq        -3.3834382988     2.0316373968     0.4725775785
Bq        -3.3813143253     1.7707410947    -0.0677266028
Bq        -3.3837922943     2.0751201138     0.5626282753
Bq        -3.3809603297     1.7272583777    -0.1577772997
Bq        -3.3841462899     2.1186028308     0.6526789722
Bq        -3.3806063342     1.6837756607    -0.2478279966
Bq        -3.3823763120     1.9011892458     0.2024254878
Bq        -3.3825593753     2.0347233554     0.2489938037
Bq        -3.3818513842     1.9477579214     0.0688924099
Bq        -3.3829133709     2.0782060724     0.3390445005
Bq        -3.3814973886     1.9042752044    -0.0211582870
Bq        -3.3832673665     2.1216887894     0.4290951974
Bq        -3.3811433930     1.8607924874    -0.1112089839
Bq        -3.3836213621     2.1651715065     0.5191458943
Bq        -3.3807893975     1.8173097704    -0.2012596808
Bq        -3.3839753576     2.2086542235     0.6091965912
Bq        -3.3804354019     1.7738270534    -0.2913103776
Bq        -3.3822053798     1.9912406384     0.1589431068
Bq        -3.3823884431     2.1247747481     0.2055114226
Bq        -3.3816804519     2.0378093141     0.0254100289
Bq        -3.3827424386     2.1682574651     0.2955621195
Bq        -3.3813264563     1.9943265971    -0.0646406680
Bq        -3.3830964342     2.2117401821     0.3856128164
Bq        -3.3809724608     1.9508438801    -0.1546913649
Bq        -3.3834504298     2.2552228991     0.4756635133
Bq        -3.3806184652     1.9073611631    -0.2447420618
Bq        -3.3838044254     2.2987056161     0.5657142102
Bq        -3.3802644696     1.8638784461    -0.3347927587
Bq        -3.3820344475     2.0812920311     0.1154607257
Bq        -3.3822175108     2.2148261408     0.1620290416
Bq        -3.3815095196     2.1278607068    -0.0180723522
Bq        -3.3825715064     2.2583088578     0.2520797385
Bq        -3.3811555241     2.0843779898    -0.1081230491
Bq        -3.3829255019     2.3017915748     0.3421304354
Bq        -3.3808015285     2.0408952728    -0.1981737459
Bq        -3.3832794975     2.3452742918     0.4321811322
Bq        -3.3804475329     1.9974125558    -0.2882244428
Bq        -3.3836334931     2.3887570088     0.5222318291
Bq        -3.3800935374     1.9539298388    -0.3782751397
Bq        -3.3818635152     2.1713434238     0.0719783447
Bq        -3.3820465785     2.3048775334     0.1185466606
Bq        -3.3813385874     2.2179120994    -0.0615547332
Bq        -3.3824005741     2.3483602505     0.2085973574
Bq        -3.3809845918     2.1744293824    -0.1516054301
Bq        -3.3827545697     2.3918429675     0.2986480543
Bq        -3.3806305962     2.1309466654    -0.2416561270
Bq        -3.3831085652     2.4353256845     0.3886987512
Bq        -3.3802766007     2.0874639484    -0.3317068239
Bq        -3.3834625608     2.4788084015     0.4787494481
Bq        -3.3799226051     2.0439812314    -0.4217575207
Bq        -3.3816925829     2.2613948164     0.0284959637
Bq        -3.3818756462     2.3949289261     0.0750642795

1
2
3
4
5
6
7
8
9
10
11
12
13
14
15
16
17
18
19
20
21
22
23
24
25
26
27
28
29
30
31
32
33
34
35
36
37
38
39
40
41
42
43
44
45
46
47
48
49
50
51
52
53
54
55
56
57
58
59
60
61
62
63
64
65
66
67
68
69
70
71
72
73
74
75
76
77
78
79
80
81
82
83
84
85
86
87
88
89
90
91
92
93
94
95
96
97
98
99
100
101
102
103
104
105
106
107
108
109
110
111
112
113
114
115
116
117
118
119
120
121
122
123
124
125
126
127
128
129
130
131
132
133
134
135
136
137
138
139
140
141
142
143
144
145
146
147
148
149
150
151
152
153
154
155
156
157
158
159
160
161
162
163
164
165
166
167
168
169
170
171
172
173
174
175
176
177
178
179
180
181
182
183
184
185
186
187
188
189
190
191
192
193
194
195
196
197
198
199
200
201
202
203
204
205
206
207
208
209
210
211
212
213
214
215
216
217
218
219
220
221
222
223
224
225
226
227
228
229
230
231
232
233
234
235
236

