%nproc=8
%mem=1000MB
# rb3lyp/6-311+g** NMR geom=connectivity

Title

0 1
C    -4.0500558   -0.5771862    0.8136712
H    -5.0263804   -1.0082727    1.0024760
C    -3.9381552    0.6617804    0.2400876
H    -4.8252424    1.2338890   -0.0111295
C    -2.6768410    1.2433246    0.0057578
C    -1.4974121    0.5051527    0.2848253
C    -1.6508332   -0.7338728    0.9404026
H    -0.7713646   -1.2730967    1.2633753
C    -2.8898548   -1.2624035    1.1994307
H    -2.9683706   -2.2124563    1.7152676
C    -2.5773185    2.5963696   -0.4192930
H    -3.4870728    3.1412239   -0.6474055
C    -1.3741895    3.2147896   -0.4364030
H    -1.2997315    4.2742019   -0.6578144
C    -0.1719488    2.4994090   -0.1734588
C    -0.2043917    1.1018437    0.0192689
C     1.0513491    3.2042560   -0.0676222
H     1.0427344    4.2819499   -0.1896997
C     2.1942091    2.5487446    0.2579577
H     3.1168527    3.0912848    0.4334727
C     2.2216473    1.1336562    0.2934990
C     1.0486931    0.3945528    0.0302412
C     3.4483363    0.4614633    0.5573939
H     4.3095794    1.0606054    0.8334846
C     3.5427346   -0.8855926    0.4749463
H     4.4731467   -1.3939704    0.7038822
C     2.4490052   -1.6474447   -0.0196319
C     1.2150704   -1.0057258   -0.3013573
C     0.2531113   -1.7434440   -1.0216591
H    -0.6541356   -1.2535051   -1.3462847
C     0.4494193   -3.0628597   -1.3413779
H    -0.3083162   -3.5944309   -1.9054060
C     1.6251726   -3.7207967   -0.9552541
H     1.7670048   -4.7687404   -1.1927019
C     2.6109872   -3.0144177   -0.3183050
H     3.5525612   -3.4902813   -0.0646367
Bq        -3.7421037348     2.0319934216     0.4670068078
Bq        -3.7267358095     1.9337961521     0.0795521354
Bq        -3.7459457161     2.0565427390     0.5638704758
Bq        -3.7228938281     1.9092468348    -0.0173115327
Bq        -3.7497876975     2.0810920564     0.6607341439
Bq        -3.7190518468     1.8846975174    -0.1141752008
Bq        -3.7536296788     2.1056413738     0.7575978120
Bq        -3.7152098655     1.8601482000    -0.2110388689
Bq        -3.7344197721     1.9828947869     0.2732794716
Bq        -3.7372887992     2.1043839362     0.3456131102
Bq        -3.7296048366     2.0552853014     0.1518857741
Bq        -3.7411307806     2.1289332536     0.4424767783
Bq        -3.7257628553     2.0307359841     0.0550221060
Bq        -3.7449727619     2.1534825709     0.5393404464
Bq        -3.7219208739     2.0061866667    -0.0418415621
Bq        -3.7488147432     2.1780318883     0.6362041145
Bq        -3.7180788926     1.9816373493    -0.1387052302
Bq        -3.7526567246     2.2025812057     0.7330677826
Bq        -3.7142369113     1.9570880319    -0.2355688983
Bq        -3.7334468179     2.0798346188     0.2487494421
Bq        -3.7363158450     2.2013237681     0.3210830808
Bq        -3.7286318824     2.1522251334     0.1273557446
Bq        -3.7401578263     2.2258730855     0.4179467489
Bq        -3.7247899010     2.1276758160     0.0304920765
Bq        -3.7439998077     2.2504224029     0.5148104170
Bq        -3.7209479197     2.1031264986    -0.0663715915
Bq        -3.7478417890     2.2749717203     0.6116740851
Bq        -3.7171059384     2.0785771813    -0.1632352596
Bq        -3.7516837703     2.2995210376     0.7085377532
Bq        -3.7132639570     2.0540278639    -0.2600989277
Bq        -3.7324738637     2.1767744508     0.2242194127
Bq        -3.7353428908     2.2982636001     0.2965530514
Bq        -3.7276589281     2.2491649653     0.1028257152
Bq        -3.7391848721     2.3228129174     0.3934167195
Bq        -3.7238169468     2.2246156479     0.0059620471
Bq        -3.7430268535     2.3473622348     0.4902803876
Bq        -3.7199749655     2.2000663306    -0.0909016210
Bq        -3.7468688348     2.3719115522     0.5871440557
Bq        -3.7161329841     2.1755170132    -0.1877652891
Bq        -3.7507108161     2.3964608696     0.6840077237
Bq        -3.7122910028     2.1509676958    -0.2846289572
Bq        -3.7315009095     2.2737142827     0.1996893833
Bq        -3.7343699366     2.3952034320     0.2720230220
Bq        -3.7266859739     2.3461047973     0.0782956858
Bq        -3.7382119179     2.4197527494     0.3688866900
Bq        -3.7228439926     2.3215554799    -0.0185679823
Bq        -3.7420538992     2.4443020668     0.4657503581
Bq        -3.7190020113     2.2970061625    -0.1154316504
Bq        -3.7458958806     2.4688513841     0.5626140262
Bq        -3.7151600299     2.2724568451    -0.2122953185
Bq        -3.7497378619     2.4934007015     0.6594776943
Bq        -3.7113180486     2.2479075278    -0.3091589866
Bq        -3.7305279552     2.3706541146     0.1751593539
Bq        -3.7333969823     2.4921432640     0.2474929925
Bq        -3.7257130197     2.4430446292     0.0537656564
Bq        -3.7372389637     2.5166925813     0.3443566606
Bq        -3.7218710384     2.4184953118    -0.0430980117
Bq        -3.7410809450     2.5412418987     0.4412203287
Bq        -3.7180290570     2.3939459944    -0.1399616798
Bq        -3.7449229263     2.5657912161     0.5380839968
Bq        -3.7141870757     2.3693966771    -0.2368253479
Bq        -3.7487649077     2.5903405335     0.6349476649
Bq        -3.7103450944     2.3448473597    -0.3336890160
Bq        -3.7295550010     2.4675939466     0.1506293244
Bq        -3.7324240281     2.5890830959     0.2229629631
Bq        -3.7247400655     2.5399844611     0.0292356269
Bq        -3.7362660094     2.6136324133     0.3198266312
Bq        -3.7208980841     2.5154351438    -0.0676280412
Bq        -3.7401079908     2.6381817306     0.4166902993
Bq        -3.7170561028     2.4908858264    -0.1644917093
Bq        -3.7439499721     2.6627310480     0.5135539674
Bq        -3.7132141215     2.4663365090    -0.2613553773
Bq        -3.7477919534     2.6872803654     0.6104176355
Bq        -3.7093721401     2.4417871916    -0.3582190454
Bq        -3.7285820468     2.5645337785     0.1260992950
Bq        -3.7314510739     2.6860229278     0.1984329337
Bq        -3.7237671112     2.6369242931     0.0047055975
Bq        -3.7352930552     2.7105722452     0.2952966018
Bq        -3.7199251299     2.6123749757    -0.0921580706
Bq        -3.7391350366     2.7351215626     0.3921602699
Bq        -3.7160831486     2.5878256583    -0.1890217387
Bq        -3.7429770179     2.7596708800     0.4890239379
Bq        -3.7122411672     2.5632763409    -0.2858854068
Bq        -3.7468189992     2.7842201973     0.5858876060
Bq        -3.7083991859     2.5387270236    -0.3827490749
Bq        -3.7276090926     2.6614736105     0.1015692656
Bq        -3.7304781197     2.7829627598     0.1739029042
Bq        -3.7227941570     2.7338641250    -0.0198244319
Bq        -3.7343201010     2.8075120771     0.2707665723
Bq        -3.7189521757     2.7093148076    -0.1166881000
Bq        -3.7381620823     2.8320613945     0.3676302404
Bq        -3.7151101944     2.6847654903    -0.2135517681
Bq        -3.7420040637     2.8566107119     0.4644939085
Bq        -3.7112682130     2.6602161729    -0.3104154362
Bq        -3.7458460450     2.8811600293     0.5613575766
Bq        -3.7074262317     2.6356668555    -0.4072791043
Bq        -3.7266361383     2.7584134424     0.0770392362
Bq        -3.7295051654     2.8799025917     0.1493728748
Bq        -3.7218212028     2.8308039570    -0.0443544614
Bq        -3.7333471468     2.9044519091     0.2462365429
Bq        -3.7179792215     2.8062546396    -0.1412181294
Bq        -3.7371891281     2.9290012265     0.3431002110
Bq        -3.7141372401     2.7817053222    -0.2380817975
Bq        -3.7410311094     2.9535505438     0.4399638791
Bq        -3.7102952588     2.7571560048    -0.3349454656
Bq        -3.7448730908     2.9780998612     0.5368275472
Bq        -3.7064532775     2.7326066875    -0.4318091337
Bq        -3.7256631841     2.8553532743     0.0525092067
Bq        -3.7285322112     2.9768424236     0.1248428454
Bq        -3.7208482486     2.9277437889    -0.0688844908
Bq        -3.7323741926     3.0013917410     0.2217065135
Bq        -3.7170062672     2.9031944715    -0.1657481589
Bq        -3.7362161739     3.0259410584     0.3185701816
Bq        -3.7131642859     2.8786451541    -0.2626118270
Bq        -3.7400581552     3.0504903758     0.4154338497
Bq        -3.7093223046     2.8540958368    -0.3594754951
Bq        -3.7439001365     3.0750396931     0.5122975178
Bq        -3.7054803232     2.8295465194    -0.4563391631
Bq        -3.7246902299     2.9522931063     0.0279791773
Bq        -3.7275592570     3.0737822556     0.1003128160
Bq        -3.7198752943     3.0246836208    -0.0934145202
Bq        -3.7314012383     3.0983315730     0.1971764841
Bq        -3.7160333130     3.0001343035    -0.1902781883
Bq        -3.7352432197     3.1228808903     0.2940401521
Bq        -3.7121913317     2.9755849861    -0.2871418564
Bq        -3.7390852010     3.1474302077     0.3909038202
Bq        -3.7083493504     2.9510356687    -0.3840055245
Bq        -3.7429271823     3.1719795251     0.4877674883
Bq        -3.7045073690     2.9264863513    -0.4808691926
Bq        -3.7237172757     3.0492329382     0.0034491479
Bq        -3.7265863028     3.1707220875     0.0757827865
Bq        -3.7189023401     3.1216234528    -0.1179445496
Bq        -3.7304282841     3.1952714049     0.1726464546
Bq        -3.7150603588     3.0970741354    -0.2148082177
Bq        -3.7342702654     3.2198207223     0.2695101227
Bq        -3.7112183775     3.0725248180    -0.3116718858
Bq        -3.7381122468     3.2443700397     0.3663737908
Bq        -3.7073763961     3.0479755006    -0.4085355539
Bq        -3.7419542281     3.2689193570     0.4632374589
Bq        -3.7035344148     3.0234261833    -0.5053992220
Bq        -3.7227443214     3.1461727701    -0.0210808815
Bq        -3.7256133485     3.2676619195     0.0512527571
Bq        -3.7179293859     3.2185632847    -0.1424745791
Bq        -3.7294553299     3.2922112368     0.1481164252
Bq        -3.7140874046     3.1940139673    -0.2393382472
Bq        -3.7332973112     3.3167605542     0.2449800933
Bq        -3.7102454232     3.1694646500    -0.3362019152
Bq        -3.7371392925     3.3413098716     0.3418437614
Bq        -3.7064034419     3.1449153326    -0.4330655833
Bq        -3.7409812739     3.3658591890     0.4387074295
Bq        -3.7025614606     3.1203660152    -0.5299292514
Bq        -3.7217713672     3.2431126021    -0.0456109110
Bq        -3.7246403943     3.3646017514     0.0267227277
Bq        -3.7169564317     3.3155031167    -0.1670046085
Bq        -3.7284823757     3.3891510688     0.1235863958
Bq        -3.7131144503     3.2909537993    -0.2638682766
Bq        -3.7323243570     3.4137003862     0.2204500639
Bq        -3.7092724690     3.2664044819    -0.3607319447
Bq        -3.7361663383     3.4382497035     0.3173137320
Bq        -3.7054304877     3.2418551645    -0.4575956128
Bq        -3.7400083196     3.4627990209     0.4141774000
Bq        -3.7015885063     3.2173058471    -0.5544592809
Bq        -3.7207984130     3.3400524340    -0.0701409404
Bq        -3.7236674401     3.4615415833     0.0021926983
Bq        -3.7159834774     3.4124429486    -0.1915346379
Bq        -3.7275094214     3.4860909007     0.0990563663
Bq        -3.7121414961     3.3878936312    -0.2883983060
Bq        -3.7313514028     3.5106402181     0.1959200344
Bq        -3.7082995148     3.3633443138    -0.3852619741
Bq        -3.7351933841     3.5351895355     0.2927837025
Bq        -3.7044575335     3.3387949965    -0.4821256422
Bq        -3.7390353654     3.5597388528     0.3896473706
Bq        -3.7006155521     3.3142456791    -0.5789893103
Bq        -3.7198254588     3.4369922660    -0.0946709698
Bq        -3.7226944859     3.5584814153    -0.0223373312
Bq        -3.7150105232     3.5093827805    -0.2160646673
Bq        -3.7265364672     3.5830307327     0.0745263369
Bq        -3.7111685419     3.4848334632    -0.3129283354
Bq        -3.7303784485     3.6075800500     0.1713900050
Bq        -3.7073265606     3.4602841458    -0.4097920035
Bq        -3.7342204299     3.6321293674     0.2682536731
Bq        -3.7034845792     3.4357348284    -0.5066556716
Bq        -3.7380624112     3.6566786848     0.3651173412
Bq        -3.6996425979     3.4111855110    -0.6035193397
Bq        -3.7188525045     3.5339320979    -0.1192009993
Bq        -3.7217215317     3.6554212472    -0.0468673606
Bq        -3.7140375690     3.6063226125    -0.2405946968
Bq        -3.7255635130     3.6799705646     0.0499963075
Bq        -3.7101955877     3.5817732951    -0.3374583649
Bq        -3.7294054943     3.7045198820     0.1468599756
Bq        -3.7063536063     3.5572239777    -0.4343220330
Bq        -3.7332474756     3.7290691993     0.2437236437
Bq        -3.7025116250     3.5326746603    -0.5311857010
Bq        -3.7370894570     3.7536185167     0.3405873118
Bq        -3.6986696437     3.5081253430    -0.6280493691
Bq        -3.7178795503     3.6308719298    -0.1437310287
Bq        -3.7207485774     3.7523610792    -0.0713973900
Bq        -3.7130646148     3.7032624444    -0.2651247262
Bq        -3.7245905588     3.7769103965     0.0254662781
Bq        -3.7092226334     3.6787131270    -0.3619883943

1
2
3
4
5
6
7
8
9
10
11
12
13
14
15
16
17
18
19
20
21
22
23
24
25
26
27
28
29
30
31
32
33
34
35
36
37
38
39
40
41
42
43
44
45
46
47
48
49
50
51
52
53
54
55
56
57
58
59
60
61
62
63
64
65
66
67
68
69
70
71
72
73
74
75
76
77
78
79
80
81
82
83
84
85
86
87
88
89
90
91
92
93
94
95
96
97
98
99
100
101
102
103
104
105
106
107
108
109
110
111
112
113
114
115
116
117
118
119
120
121
122
123
124
125
126
127
128
129
130
131
132
133
134
135
136
137
138
139
140
141
142
143
144
145
146
147
148
149
150
151
152
153
154
155
156
157
158
159
160
161
162
163
164
165
166
167
168
169
170
171
172
173
174
175
176
177
178
179
180
181
182
183
184
185
186
187
188
189
190
191
192
193
194
195
196
197
198
199
200
201
202
203
204
205
206
207
208
209
210
211
212
213
214
215
216
217
218
219
220
221
222
223
224
225
226
227
228
229
230
231
232
233
234
235
236

