%nproc=8
%mem=1000MB
# rb3lyp/6-311+g** NMR geom=connectivity

Title

0 1
C    -4.0500558   -0.5771862    0.8136712
H    -5.0263804   -1.0082727    1.0024760
C    -3.9381552    0.6617804    0.2400876
H    -4.8252424    1.2338890   -0.0111295
C    -2.6768410    1.2433246    0.0057578
C    -1.4974121    0.5051527    0.2848253
C    -1.6508332   -0.7338728    0.9404026
H    -0.7713646   -1.2730967    1.2633753
C    -2.8898548   -1.2624035    1.1994307
H    -2.9683706   -2.2124563    1.7152676
C    -2.5773185    2.5963696   -0.4192930
H    -3.4870728    3.1412239   -0.6474055
C    -1.3741895    3.2147896   -0.4364030
H    -1.2997315    4.2742019   -0.6578144
C    -0.1719488    2.4994090   -0.1734588
C    -0.2043917    1.1018437    0.0192689
C     1.0513491    3.2042560   -0.0676222
H     1.0427344    4.2819499   -0.1896997
C     2.1942091    2.5487446    0.2579577
H     3.1168527    3.0912848    0.4334727
C     2.2216473    1.1336562    0.2934990
C     1.0486931    0.3945528    0.0302412
C     3.4483363    0.4614633    0.5573939
H     4.3095794    1.0606054    0.8334846
C     3.5427346   -0.8855926    0.4749463
H     4.4731467   -1.3939704    0.7038822
C     2.4490052   -1.6474447   -0.0196319
C     1.2150704   -1.0057258   -0.3013573
C     0.2531113   -1.7434440   -1.0216591
H    -0.6541356   -1.2535051   -1.3462847
C     0.4494193   -3.0628597   -1.3413779
H    -0.3083162   -3.5944309   -1.9054060
C     1.6251726   -3.7207967   -0.9552541
H     1.7670048   -4.7687404   -1.1927019
C     2.6109872   -3.0144177   -0.3183050
H     3.5525612   -3.4902813   -0.0646367
Bq         3.2447116756     1.1269649973     1.3590930935
Bq         3.3474271329     1.1838756335     0.9767179971
Bq         3.2190328113     1.1127373383     1.4546868676
Bq         3.3731059972     1.1981032925     0.8811242230
Bq         3.1933539470     1.0985096793     1.5502806417
Bq         3.3987848615     1.2123309515     0.7855304489
Bq         3.1676750826     1.0842820203     1.6458744158
Bq         3.4244637259     1.2265586105     0.6899366749
Bq         3.2960694042     1.1554203154     1.1679055453
Bq         3.2666994894     1.2401753504     1.2772398590
Bq         3.3180572180     1.2686306685     1.0860523108
Bq         3.2410206251     1.2259476914     1.3728336331
Bq         3.3437360824     1.2828583275     0.9904585367
Bq         3.2153417607     1.2117200323     1.4684274072
Bq         3.3694149467     1.2970859865     0.8948647626
Bq         3.1896628964     1.1974923733     1.5640211813
Bq         3.3950938110     1.3113136455     0.7992709885
Bq         3.1639840321     1.1832647143     1.6596149554
Bq         3.4207726753     1.3255413046     0.7036772144
Bq         3.2923783537     1.2544030094     1.1816460849
Bq         3.2630084389     1.3391580444     1.2909803985
Bq         3.3143661675     1.3676133625     1.0997928503
Bq         3.2373295745     1.3249303854     1.3865741726
Bq         3.3400450318     1.3818410215     1.0041990763
Bq         3.2116507102     1.3107027264     1.4821679467
Bq         3.3657238961     1.3960686806     0.9086053022
Bq         3.1859718459     1.2964750674     1.5777617208
Bq         3.3914027605     1.4102963396     0.8130115281
Bq         3.1602929816     1.2822474083     1.6733554949
Bq         3.4170816248     1.4245239986     0.7174177540
Bq         3.2886873032     1.3533857035     1.1953866244
Bq         3.2593173883     1.4381407385     1.3047209381
Bq         3.3106751170     1.4665960565     1.1135333899
Bq         3.2336385240     1.4239130794     1.4003147122
Bq         3.3363539813     1.4808237156     1.0179396158
Bq         3.2079596597     1.4096854204     1.4959084863
Bq         3.3620328456     1.4950513746     0.9223458417
Bq         3.1822807954     1.3954577614     1.5915022604
Bq         3.3877117099     1.5092790336     0.8267520676
Bq         3.1566019310     1.3812301024     1.6870960345
Bq         3.4133905743     1.5235066926     0.7311582935
Bq         3.2849962526     1.4523683975     1.2091271640
Bq         3.2556263378     1.5371234325     1.3184614777
Bq         3.3069840664     1.5655787506     1.1272739295
Bq         3.2299474735     1.5228957735     1.4140552518
Bq         3.3326629308     1.5798064096     1.0316801554
Bq         3.2042686091     1.5086681145     1.5096490258
Bq         3.3583417951     1.5940340686     0.9360863813
Bq         3.1785897448     1.4944404554     1.6052427999
Bq         3.3840206594     1.6082617277     0.8404926072
Bq         3.1529108805     1.4802127964     1.7008365740
Bq         3.4096995237     1.6224893867     0.7448988331
Bq         3.2813052021     1.5513510915     1.2228677036
Bq         3.2519352872     1.6361061265     1.3322020172
Bq         3.3032930159     1.6645614446     1.1410144690
Bq         3.2262564229     1.6218784675     1.4277957913
Bq         3.3289718802     1.6787891036     1.0454206949
Bq         3.2005775586     1.6076508085     1.5233895654
Bq         3.3546507445     1.6930167627     0.9498269208
Bq         3.1748986943     1.5934231495     1.6189833395
Bq         3.3803296089     1.7072444217     0.8542331467
Bq         3.1492198300     1.5791954904     1.7145771136
Bq         3.4060084732     1.7214720807     0.7586393726
Bq         3.2776141516     1.6503337856     1.2366082431
Bq         3.2482442367     1.7350888206     1.3459425568
Bq         3.2996019654     1.7635441386     1.1547550086
Bq         3.2225653724     1.7208611616     1.4415363309
Bq         3.3252808297     1.7777717977     1.0591612345
Bq         3.1968865081     1.7066335025     1.5371301050
Bq         3.3509596940     1.7919994567     0.9635674604
Bq         3.1712076437     1.6924058435     1.6327238791
Bq         3.3766385583     1.8062271157     0.8679736863
Bq         3.1455287794     1.6781781845     1.7283176532
Bq         3.4023174226     1.8204547748     0.7723799122
Bq         3.2739231010     1.7493164796     1.2503487827
Bq         3.2445531862     1.8340715146     1.3596830963
Bq         3.2959109148     1.8625268327     1.1684955481
Bq         3.2188743219     1.8198438556     1.4552768704
Bq         3.3215897791     1.8767544917     1.0729017740
Bq         3.1931954575     1.8056161966     1.5508706445
Bq         3.3472686435     1.8909821507     0.9773080000
Bq         3.1675165932     1.7913885375     1.6464644186
Bq         3.3729475078     1.9052098098     0.8817142259
Bq         3.1418377289     1.7771608785     1.7420581927
Bq         3.3986263721     1.9194374688     0.7861204518
Bq         3.2702320505     1.8482991736     1.2640893222
Bq         3.2408621356     1.9330542087     1.3734236359
Bq         3.2922198643     1.9615095267     1.1822360877
Bq         3.2151832713     1.9188265496     1.4690174100
Bq         3.3178987286     1.9757371857     1.0866423136
Bq         3.1895044070     1.9045988906     1.5646111841
Bq         3.3435775929     1.9899648448     0.9910485395
Bq         3.1638255427     1.8903712316     1.6602049582
Bq         3.3692564573     2.0041925038     0.8954547654
Bq         3.1381466784     1.8761435725     1.7557987323
Bq         3.3949353216     2.0184201628     0.7998609913
Bq         3.2665410000     1.9472818677     1.2778298618
Bq         3.2371710851     2.0320369027     1.3871641754
Bq         3.2885288138     2.0604922207     1.1959766273
Bq         3.2114922208     2.0178092437     1.4827579495
Bq         3.3142076781     2.0747198798     1.1003828532
Bq         3.1858133565     2.0035815846     1.5783517236
Bq         3.3398865424     2.0889475388     1.0047890791
Bq         3.1601344921     1.9893539256     1.6739454977
Bq         3.3655654067     2.1031751978     0.9091953050
Bq         3.1344556278     1.9751262666     1.7695392718
Bq         3.3912442710     2.1174028569     0.8136015309
Bq         3.2628499494     2.0462645617     1.2915704014
Bq         3.2334800346     2.1310195967     1.4009047150
Bq         3.2848377632     2.1594749148     1.2097171668
Bq         3.2078011702     2.1167919377     1.4964984891
Bq         3.3105166275     2.1737025738     1.1141233927
Bq         3.1821223059     2.1025642787     1.5920922632
Bq         3.3361954919     2.1879302328     1.0185296186
Bq         3.1564434416     2.0883366196     1.6876860373
Bq         3.3618743562     2.2021578919     0.9229358445
Bq         3.1307645773     2.0741089606     1.7832798114
Bq         3.3875532205     2.2163855509     0.8273420704
Bq         3.2591588989     2.1452472558     1.3053109409
Bq         3.5146088114    -2.8181151051     0.7398205189
Bq         3.5659665400    -2.7896597870     0.5486329707
Bq         3.4889299471    -2.8323427641     0.8354142929
Bq         3.5916454044    -2.7754321280     0.4530391966
Bq         3.4632510827    -2.8465704231     0.9310080670
Bq         3.6173242687    -2.7612044690     0.3574454225
Bq         3.4375722184    -2.8607980821     1.0266018411
Bq         3.6430031330    -2.7469768099     0.2618516484
Bq         3.4118933541    -2.8750257412     1.1221956152
Bq         3.6686819973    -2.7327491509     0.1662578743
Bq         3.5402876757    -2.8038874460     0.6442267448
Bq         3.5109177609    -2.7191324110     0.7535610584
Bq         3.5622754895    -2.6906770930     0.5623735102
Bq         3.4852388965    -2.7333600701     0.8491548325
Bq         3.5879543538    -2.6764494339     0.4667797361
Bq         3.4595600322    -2.7475877291     0.9447486066
Bq         3.6136332181    -2.6622217749     0.3711859620
Bq         3.4338811679    -2.7618153881     1.0403423807
Bq         3.6393120825    -2.6479941159     0.2755921879
Bq         3.4082023036    -2.7760430471     1.1359361548
Bq         3.6649909468    -2.6337664569     0.1799984138
Bq         3.5365966252    -2.7049047520     0.6579672843
Bq         3.5072267103    -2.6201497170     0.7673015980
Bq         3.5585844390    -2.5916943989     0.5761140498
Bq         3.4815478460    -2.6343773760     0.8628953721
Bq         3.5842633033    -2.5774667399     0.4805202757
Bq         3.4558689817    -2.6486050350     0.9584891462
Bq         3.6099421676    -2.5632390809     0.3849265016
Bq         3.4301901173    -2.6628326941     1.0540829203
Bq         3.6356210319    -2.5490114219     0.2893327275
Bq         3.4045112530    -2.6770603531     1.1496766943
Bq         3.6612998963    -2.5347837628     0.1937389534
Bq         3.5329055746    -2.6059220580     0.6717078239
Bq         3.5035356598    -2.5211670230     0.7810421375
Bq         3.5548933884    -2.4927117049     0.5898545893
Bq         3.4778567955    -2.5353946820     0.8766359116
Bq         3.5805722527    -2.4784840459     0.4942608152
Bq         3.4521779311    -2.5496223410     0.9722296857
Bq         3.6062511171    -2.4642563868     0.3986670412
Bq         3.4264990668    -2.5638500000     1.0678234598
Bq         3.6319299814    -2.4500287278     0.3030732671
Bq         3.4008202025    -2.5780776591     1.1634172339
Bq         3.6576088457    -2.4358010688     0.2074794930
Bq         3.5292145241    -2.5069393639     0.6854483634
Bq         3.4998446092    -2.4221843289     0.7947826771
Bq         3.5512023379    -2.3937290109     0.6035951289
Bq         3.4741657449    -2.4364119879     0.8903764512
Bq         3.5768812022    -2.3795013518     0.5080013548
Bq         3.4484868806    -2.4506396470     0.9859702253
Bq         3.6025600665    -2.3652736928     0.4124075807
Bq         3.4228080163    -2.4648673060     1.0815639994
Bq         3.6282389309    -2.3510460338     0.3168138066
Bq         3.3971291520    -2.4790949650     1.1771577735
Bq         3.6539177952    -2.3368183748     0.2212200325
Bq         3.5255234736    -2.4079566699     0.6991889030
Bq         3.4961535587    -2.3232016349     0.8085232166
Bq         3.5475112874    -2.2947463168     0.6173356685
Bq         3.4704746944    -2.3374292939     0.9041169907
Bq         3.5731901517    -2.2805186578     0.5217418944
Bq         3.4447958301    -2.3516569529     0.9997107648
Bq         3.5988690160    -2.2662909988     0.4261481203
Bq         3.4191169657    -2.3658846120     1.0953045389
Bq         3.6245478803    -2.2520633397     0.3305543462
Bq         3.3934381014    -2.3801122710     1.1908983130
Bq         3.6502267446    -2.2378356807     0.2349605721
Bq         3.5218324230    -2.3089739759     0.7129294426
Bq         3.4924625082    -2.2242189408     0.8222637562
Bq         3.5438202368    -2.1957636228     0.6310762080
Bq         3.4667836439    -2.2384465999     0.9178575303
Bq         3.5694991011    -2.1815359638     0.5354824339
Bq         3.4411047795    -2.2526742589     1.0134513044
Bq         3.5951779655    -2.1673083047     0.4398886598
Bq         3.4154259152    -2.2669019179     1.1090450785
Bq         3.6208568298    -2.1530806457     0.3442948857
Bq         3.3897470509    -2.2811295770     1.2046388526
Bq         3.6465356941    -2.1388529867     0.2487011116
Bq         3.5181413725    -2.2099912818     0.7266699821
Bq         3.4887714576    -2.1252362468     0.8360042958
Bq         3.5401291863    -2.0967809288     0.6448167476
Bq         3.4630925933    -2.1394639058     0.9315980699
Bq         3.5658080506    -2.0825532697     0.5492229735

1
2
3
4
5
6
7
8
9
10
11
12
13
14
15
16
17
18
19
20
21
22
23
24
25
26
27
28
29
30
31
32
33
34
35
36
37
38
39
40
41
42
43
44
45
46
47
48
49
50
51
52
53
54
55
56
57
58
59
60
61
62
63
64
65
66
67
68
69
70
71
72
73
74
75
76
77
78
79
80
81
82
83
84
85
86
87
88
89
90
91
92
93
94
95
96
97
98
99
100
101
102
103
104
105
106
107
108
109
110
111
112
113
114
115
116
117
118
119
120
121
122
123
124
125
126
127
128
129
130
131
132
133
134
135
136
137
138
139
140
141
142
143
144
145
146
147
148
149
150
151
152
153
154
155
156
157
158
159
160
161
162
163
164
165
166
167
168
169
170
171
172
173
174
175
176
177
178
179
180
181
182
183
184
185
186
187
188
189
190
191
192
193
194
195
196
197
198
199
200
201
202
203
204
205
206
207
208
209
210
211
212
213
214
215
216
217
218
219
220
221
222
223
224
225
226
227
228
229
230
231
232
233
234
235
236

