%nproc=8
%mem=1000MB
# rb3lyp/6-311+g** NMR geom=connectivity

Title

0 1
C    -4.0500558   -0.5771862    0.8136712
H    -5.0263804   -1.0082727    1.0024760
C    -3.9381552    0.6617804    0.2400876
H    -4.8252424    1.2338890   -0.0111295
C    -2.6768410    1.2433246    0.0057578
C    -1.4974121    0.5051527    0.2848253
C    -1.6508332   -0.7338728    0.9404026
H    -0.7713646   -1.2730967    1.2633753
C    -2.8898548   -1.2624035    1.1994307
H    -2.9683706   -2.2124563    1.7152676
C    -2.5773185    2.5963696   -0.4192930
H    -3.4870728    3.1412239   -0.6474055
C    -1.3741895    3.2147896   -0.4364030
H    -1.2997315    4.2742019   -0.6578144
C    -0.1719488    2.4994090   -0.1734588
C    -0.2043917    1.1018437    0.0192689
C     1.0513491    3.2042560   -0.0676222
H     1.0427344    4.2819499   -0.1896997
C     2.1942091    2.5487446    0.2579577
H     3.1168527    3.0912848    0.4334727
C     2.2216473    1.1336562    0.2934990
C     1.0486931    0.3945528    0.0302412
C     3.4483363    0.4614633    0.5573939
H     4.3095794    1.0606054    0.8334846
C     3.5427346   -0.8855926    0.4749463
H     4.4731467   -1.3939704    0.7038822
C     2.4490052   -1.6474447   -0.0196319
C     1.2150704   -1.0057258   -0.3013573
C     0.2531113   -1.7434440   -1.0216591
H    -0.6541356   -1.2535051   -1.3462847
C     0.4494193   -3.0628597   -1.3413779
H    -0.3083162   -3.5944309   -1.9054060
C     1.6251726   -3.7207967   -0.9552541
H     1.7670048   -4.7687404   -1.1927019
C     2.6109872   -3.0144177   -0.3183050
H     3.5525612   -3.4902813   -0.0646367
Bq        -1.0218471281     4.2616095562     0.0098242553
Bq        -1.0064792028     4.1634122867    -0.3776304171
Bq        -1.0256891095     4.2861588736     0.1066879234
Bq        -1.0026372215     4.1388629694    -0.4744940852
Bq        -1.0295310908     4.3107081910     0.2035515914
Bq        -0.9987952402     4.1143136520    -0.5713577533
Bq        -1.0333730721     4.3352575084     0.3004152595
Bq        -0.9949532588     4.0897643346    -0.6682214214
Bq        -1.0141631655     4.2125109215    -0.1839030809
Bq        -1.0170321926     4.3340000708    -0.1115694423
Bq        -1.0093482299     4.2849014360    -0.3052967784
Bq        -1.0208741739     4.3585493882    -0.0147057742
Bq        -1.0055062486     4.2603521187    -0.4021604465
Bq        -1.0247161552     4.3830987055     0.0821578939
Bq        -1.0016642673     4.2358028013    -0.4990241146
Bq        -1.0285581366     4.4076480229     0.1790215620
Bq        -0.9978222859     4.2112534839    -0.5958877827
Bq        -1.0324001179     4.4321973403     0.2758852301
Bq        -0.9939803046     4.1867041665    -0.6927514508
Bq        -1.0131902113     4.3094507534    -0.2084331103
Bq        -1.0160592384     4.4309399027    -0.1360994717
Bq        -1.0083752757     4.3818412680    -0.3298268079
Bq        -1.0199012197     4.4554892201    -0.0392358036
Bq        -1.0045332944     4.3572919506    -0.4266904760
Bq        -1.0237432010     4.4800385375     0.0576278645
Bq        -1.0006913130     4.3327426332    -0.5235541440
Bq        -1.0275851824     4.5045878549     0.1544915326
Bq        -0.9968493317     4.3081933159    -0.6204178121
Bq        -1.0314271637     4.5291371722     0.2513552007
Bq        -0.9930073504     4.2836439985    -0.7172814802
Bq        -1.0122172570     4.4063905854    -0.2329631398
Bq        -0.9647855178    -0.4160516942     1.0943652635
Bq        -0.9571015551    -0.4651503290     0.9006379274
Bq        -0.9686274991    -0.3915023768     1.1912289316
Bq        -0.9532595738    -0.4896996464     0.8037742593
Bq        -0.9724694804    -0.3669530595     1.2880925997
Bq        -0.9494175924    -0.5142489637     0.7069105912
Bq        -0.9763114617    -0.3424037421     1.3849562678
Bq        -0.9455756111    -0.5387982811     0.6100469231
Bq        -0.9801534431    -0.3178544247     1.4818199359
Bq        -0.9417336298    -0.5633475985     0.5131832550
Bq        -0.9609435364    -0.4406010116     0.9975015954
Bq        -0.9638125635    -0.3191118623     1.0698352341
Bq        -0.9561286009    -0.3682104970     0.8761078979
Bq        -0.9676545449    -0.2945625449     1.1666989022
Bq        -0.9522866195    -0.3927598144     0.7792442298
Bq        -0.9714965262    -0.2700132275     1.2635625703
Bq        -0.9484446382    -0.4173091318     0.6823805618
Bq        -0.9753385075    -0.2454639102     1.3604262384
Bq        -0.9446026569    -0.4418584492     0.5855168937
Bq        -0.9791804888    -0.2209145928     1.4572899065
Bq        -0.9407606756    -0.4664077665     0.4886532256
Bq        -0.9599705822    -0.3436611797     0.9729715660
Bq        -0.9628396093    -0.2221720303     1.0453052047
Bq        -0.9551556466    -0.2712706651     0.8515778685
Bq        -0.9666815906    -0.1976227130     1.1421688728
Bq        -0.9513136653    -0.2958199825     0.7547142004
Bq        -0.9705235720    -0.1730733956     1.2390325409
Bq        -0.9474716840    -0.3203692998     0.6578505323
Bq        -0.9743655533    -0.1485240782     1.3358962090
Bq        -0.9436297027    -0.3449186172     0.5609868642
Bq        -0.9782075346    -0.1239747608     1.4327598770
Bq        -0.9397877213    -0.3694679346     0.4641231961
Bq        -0.9589976280    -0.2467213477     0.9484415366
Bq        -0.9618666551    -0.1252321984     1.0207751753
Bq        -0.9541826924    -0.1743308332     0.8270478391
Bq        -0.9657086364    -0.1006828810     1.1176388433
Bq        -0.9503407111    -0.1988801505     0.7301841710
Bq        -0.9695506177    -0.0761335637     1.2145025114
Bq        -0.9464987298    -0.2234294679     0.6333205029
Bq        -0.9733925991    -0.0515842463     1.3113661795
Bq        -0.9426567484    -0.2479787853     0.5364568348
Bq        -0.9772345804    -0.0270349289     1.4082298476
Bq        -0.9388147671    -0.2725281027     0.4395931667
Bq        -0.9580246738    -0.1497815158     0.9239115072
Bq        -0.9608937009    -0.0282923665     0.9962451458
Bq        -0.9532097382    -0.0773910012     0.8025178096
Bq        -0.9647356822    -0.0037430491     1.0931088139
Bq        -0.9493677569    -0.1019403186     0.7056541416
Bq        -0.9685776635     0.0208062683     1.1899724820
Bq        -0.9455257755    -0.1264896360     0.6087904735
Bq        -0.9724196448     0.0453555857     1.2868361501
Bq        -0.9416837942    -0.1510389533     0.5119268054
Bq        -0.9762616262     0.0699049030     1.3836998182
Bq        -0.9378418129    -0.1755882707     0.4150631373
Bq        -0.9570517195    -0.0528416838     0.8993814777
Bq        -0.9599207466     0.0686474655     0.9717151164
Bq        -0.9522367840     0.0195488307     0.7779877802
Bq        -0.9637627280     0.0931967828     1.0685787845
Bq        -0.9483948026    -0.0050004867     0.6811241121
Bq        -0.9676047093     0.1177461002     1.1654424526
Bq        -0.9445528213    -0.0295498040     0.5842604440
Bq        -0.9714466906     0.1422954176     1.2623061207
Bq        -0.9407108400    -0.0540991214     0.4873967760
Bq        -0.9752886719     0.1668447350     1.3591697888
Bq        -0.9368688587    -0.0786484388     0.3905331079
Bq        -0.9560787653     0.0440981481     0.8748514483
Bq        -0.9589477924     0.1655872974     0.9471850870
Bq        -0.9512638297     0.1164886627     0.7534577508
Bq        -0.9627897737     0.1901366148     1.0440487551
Bq        -0.9474218484     0.0919393453     0.6565940827
Bq        -0.9666317551     0.2146859322     1.1409124232
Bq        -0.9435798671     0.0673900279     0.5597304146
Bq        -0.9704737364     0.2392352495     1.2377760912
Bq        -0.9397378858     0.0428407105     0.4628667465
Bq        -0.9743157177     0.2637845669     1.3346397593
Bq        -0.9358959044     0.0182913932     0.3660030784
Bq        -0.9551058111     0.1410379800     0.8503214189
Bq        -0.9579748382     0.2625271294     0.9226550575
Bq        -0.9502908755     0.2134284946     0.7289277214
Bq        -0.9618168195     0.2870764467     1.0195187256
Bq        -0.9464488942     0.1888791772     0.6320640533
Bq        -0.9656588008     0.3116257641     1.1163823937
Bq        -0.9426069129     0.1643298598     0.5352003852
Bq        -0.9695007822     0.3361750815     1.2132460618
Bq        -0.9387649315     0.1397805425     0.4383367171
Bq        -0.9733427635     0.3607243989     1.3101097299
Bq        -0.9349229502     0.1152312251     0.3414730490
Bq        -0.9541328569     0.2379778120     0.8257913895
Bq        -0.9570018840     0.3594669613     0.8981250281
Bq        -0.9493179213     0.3103683265     0.7043976919
Bq        -0.9608438653     0.3840162787     0.9949886962
Bq        -0.9454759400     0.2858190092     0.6075340239
Bq        -0.9646858466     0.4085655960     1.0918523643
Bq        -0.9416339586     0.2612696918     0.5106703558
Bq        -0.9685278279     0.4331149134     1.1887160324
Bq        -0.9377919773     0.2367203744     0.4138066877
Bq        -0.9723698093     0.4576642308     1.2855797005
Bq        -0.9339499960     0.2121710570     0.3169430196
Bq        -0.9531599026     0.3349176439     0.8012613600
Bq        -0.9560289297     0.4564067932     0.8735949987
Bq        -0.9483449671     0.4073081585     0.6798676625
Bq        -0.9598709111     0.4809561106     0.9704586668
Bq        -0.9445029857     0.3827588411     0.5830039944
Bq        -0.9637128924     0.5055054280     1.0673223349
Bq        -0.9406610044     0.3582095237     0.4861403263
Bq        -0.9675548737     0.5300547454     1.1641860030
Bq        -0.9368190231     0.3336602064     0.3892766582
Bq        -0.9713968551     0.5546040627     1.2610496711
Bq        -0.9329770418     0.3091108890     0.2924129902
Bq        -0.9521869484     0.4318574759     0.7767313306
Bq        -0.9550559755     0.5533466252     0.8490649693
Bq        -0.9473720129     0.5042479904     0.6553376331
Bq        -0.9588979568     0.5778959425     0.9459286374
Bq        -0.9435300315     0.4796986730     0.5584739650
Bq        -0.9627399382     0.6024452599     1.0427923054
Bq        -0.9396880502     0.4551493557     0.4616102969
Bq        -0.9665819195     0.6269945773     1.1396559735
Bq        -0.9358460689     0.4306000383     0.3647466288
Bq        -0.9704239008     0.6515438947     1.2365196416
Bq        -0.9320040875     0.4060507209     0.2678829607
Bq        -0.9512139942     0.5287973078     0.7522013012
Bq        -0.9540830213     0.6502864571     0.8245349398
Bq        -0.9463990586     0.6011878224     0.6308076037
Bq        -0.9579250026     0.6748357745     0.9213986079
Bq        -0.9425570773     0.5766385050     0.5339439356
Bq        -0.9617669839     0.6993850919     1.0182622760
Bq        -0.9387150960     0.5520891876     0.4370802675
Bq        -0.9656089653     0.7239344092     1.1151259441
Bq        -0.9348731146     0.5275398702     0.3402165994
Bq        -0.9694509466     0.7484837266     1.2119896122
Bq        -0.9310311333     0.5029905529     0.2433529313
Bq        -0.9502410400     0.6257371397     0.7276712718
Bq        -0.9531100671     0.7472262890     0.8000049104
Bq        -0.9454261044     0.6981276543     0.6062775742
Bq        -0.9569520484     0.7717756064     0.8968685785
Bq        -0.9415841231     0.6735783369     0.5094139061
Bq        -0.9607940297     0.7963249238     0.9937322466
Bq        -0.9377421417     0.6490290195     0.4125502381
Bq        -0.9646360110     0.8208742412     1.0905959147
Bq        -0.9339001604     0.6244797022     0.3156865700
Bq        -0.9684779924     0.8454235585     1.1874595828
Bq        -0.9300581791     0.5999303848     0.2188229019
Bq        -0.9492680857     0.7226769717     0.7031412423
Bq        -0.9521371128     0.8441661210     0.7754748810
Bq        -0.9444531502     0.7950674862     0.5817475448
Bq        -0.9559790942     0.8687154384     0.8723385491
Bq        -0.9406111688     0.7705181689     0.4848838767
Bq        -0.9598210755     0.8932647557     0.9692022172
Bq        -0.9367691875     0.7459688515     0.3880202086
Bq        -0.9636630568     0.9178140731     1.0660658853
Bq        -0.9329272062     0.7214195341     0.2911565405
Bq        -0.9675050382     0.9423633905     1.1629295533
Bq        -0.9290852249     0.6968702167     0.1942928724
Bq        -0.9482951315     0.8196168036     0.6786112129
Bq        -0.9511641586     0.9411059529     0.7509448516
Bq        -0.9434801960     0.8920073182     0.5572175154
Bq        -0.9550061399     0.9656552703     0.8478085196
Bq        -0.9396382146     0.8674580008     0.4603538473
Bq        -0.9588481213     0.9902045877     0.9446721877
Bq        -0.9357962333     0.8429086834     0.3634901792
Bq        -0.9626901026     1.0147539051     1.0415358558
Bq        -0.9319542520     0.8183593660     0.2666265111
Bq        -0.9665320839     1.0393032224     1.1383995239
Bq        -0.9281122706     0.7938100487     0.1697628430
Bq        -0.9473221773     0.9165566355     0.6540811835
Bq        -0.9501912044     1.0380457849     0.7264148221
Bq        -0.9425072417     0.9889471501     0.5326874860
Bq        -0.9540331857     1.0625951022     0.8232784902
Bq        -0.9386652604     0.9643978327     0.4358238179

1
2
3
4
5
6
7
8
9
10
11
12
13
14
15
16
17
18
19
20
21
22
23
24
25
26
27
28
29
30
31
32
33
34
35
36
37
38
39
40
41
42
43
44
45
46
47
48
49
50
51
52
53
54
55
56
57
58
59
60
61
62
63
64
65
66
67
68
69
70
71
72
73
74
75
76
77
78
79
80
81
82
83
84
85
86
87
88
89
90
91
92
93
94
95
96
97
98
99
100
101
102
103
104
105
106
107
108
109
110
111
112
113
114
115
116
117
118
119
120
121
122
123
124
125
126
127
128
129
130
131
132
133
134
135
136
137
138
139
140
141
142
143
144
145
146
147
148
149
150
151
152
153
154
155
156
157
158
159
160
161
162
163
164
165
166
167
168
169
170
171
172
173
174
175
176
177
178
179
180
181
182
183
184
185
186
187
188
189
190
191
192
193
194
195
196
197
198
199
200
201
202
203
204
205
206
207
208
209
210
211
212
213
214
215
216
217
218
219
220
221
222
223
224
225
226
227
228
229
230
231
232
233
234
235
236

