%nproc=8
%mem=1000MB
# rb3lyp/6-311+g** NMR geom=connectivity

Title

0 1
C    -4.0500558   -0.5771862    0.8136712
H    -5.0263804   -1.0082727    1.0024760
C    -3.9381552    0.6617804    0.2400876
H    -4.8252424    1.2338890   -0.0111295
C    -2.6768410    1.2433246    0.0057578
C    -1.4974121    0.5051527    0.2848253
C    -1.6508332   -0.7338728    0.9404026
H    -0.7713646   -1.2730967    1.2633753
C    -2.8898548   -1.2624035    1.1994307
H    -2.9683706   -2.2124563    1.7152676
C    -2.5773185    2.5963696   -0.4192930
H    -3.4870728    3.1412239   -0.6474055
C    -1.3741895    3.2147896   -0.4364030
H    -1.2997315    4.2742019   -0.6578144
C    -0.1719488    2.4994090   -0.1734588
C    -0.2043917    1.1018437    0.0192689
C     1.0513491    3.2042560   -0.0676222
H     1.0427344    4.2819499   -0.1896997
C     2.1942091    2.5487446    0.2579577
H     3.1168527    3.0912848    0.4334727
C     2.2216473    1.1336562    0.2934990
C     1.0486931    0.3945528    0.0302412
C     3.4483363    0.4614633    0.5573939
H     4.3095794    1.0606054    0.8334846
C     3.5427346   -0.8855926    0.4749463
H     4.4731467   -1.3939704    0.7038822
C     2.4490052   -1.6474447   -0.0196319
C     1.2150704   -1.0057258   -0.3013573
C     0.2531113   -1.7434440   -1.0216591
H    -0.6541356   -1.2535051   -1.3462847
C     0.4494193   -3.0628597   -1.3413779
H    -0.3083162   -3.5944309   -1.9054060
C     1.6251726   -3.7207967   -0.9552541
H     1.7670048   -4.7687404   -1.1927019
C     2.6109872   -3.0144177   -0.3183050
H     3.5525612   -3.4902813   -0.0646367
Bq        -1.2393028390     1.6920752911     0.4459511565
Bq        -1.2421718661     1.8135644404     0.5182847951
Bq        -1.2344879034     1.7644658056     0.3245574589
Bq        -1.2460138474     1.8381137578     0.6151484632
Bq        -1.2306459221     1.7399164882     0.2276937909
Bq        -1.2498558287     1.8626630751     0.7120121313
Bq        -1.2268039408     1.7153671709     0.1308301228
Bq        -1.2536978101     1.8872123925     0.8088757994
Bq        -1.2229619594     1.6908178535     0.0339664547
Bq        -1.2575397914     1.9117617099     0.9057394675
Bq        -1.2191199781     1.6662685361    -0.0628972134
Bq        -1.2383298848     1.7890151230     0.4214211270
Bq        -1.2411989119     1.9105042723     0.4937547657
Bq        -1.2335149492     1.8614056376     0.3000274295
Bq        -1.2450408932     1.9350535897     0.5906184338
Bq        -1.2296729679     1.8368563202     0.2031637614
Bq        -1.2488828745     1.9596029071     0.6874821019
Bq        -1.2258309866     1.8123070028     0.1063000933
Bq        -1.2527248559     1.9841522244     0.7843457700
Bq        -1.2219890052     1.7877576854     0.0094364252
Bq        -1.2565668372     2.0087015418     0.8812094381
Bq        -1.2181470239     1.7632083681    -0.0874272428
Bq        -1.2373569305     1.8859549549     0.3968910976
Bq        -1.2402259576     2.0074441043     0.4692247363
Bq        -1.2325419950     1.9583454695     0.2754974001
Bq        -1.2440679390     2.0319934216     0.5660884044
Bq        -1.2287000137     1.9337961521     0.1786337320
Bq        -1.2479099203     2.0565427390     0.6629520724
Bq        -1.2248580323     1.9092468348     0.0817700639
Bq        -1.2517519016     2.0810920564     0.7598157405
Bq        -1.2210160510     1.8846975174    -0.0150936042
Bq        -1.2555938830     2.1056413738     0.8566794086
Bq        -1.2171740697     1.8601482000    -0.1119572723
Bq        -1.2363839763     1.9828947869     0.3723610682
Bq        -1.2392530034     2.1043839362     0.4446947068
Bq        -1.2315690408     2.0552853014     0.2509673707
Bq        -1.2430949847     2.1289332536     0.5415583749
Bq        -1.2277270594     2.0307359841     0.1541037026
Bq        -1.2469369661     2.1534825709     0.6384220430
Bq        -1.2238850781     2.0061866667     0.0572400345
Bq        -1.2507789474     2.1780318883     0.7352857111
Bq        -1.2200430968     1.9816373493    -0.0396236336
Bq        -1.2546209287     2.2025812057     0.8321493792
Bq        -1.2162011154     1.9570880319    -0.1364873017
Bq        -1.2354110221     2.0798346188     0.3478310388
Bq        -1.2382800492     2.2013237681     0.4201646774
Bq        -1.2305960865     2.1522251334     0.2264373412
Bq        -1.2421220305     2.2258730855     0.5170283455
Bq        -1.2267541052     2.1276758160     0.1295736731
Bq        -1.2459640119     2.2504224029     0.6138920136
Bq        -1.2229121239     2.1031264986     0.0327100051
Bq        -1.2498059932     2.2749717203     0.7107556817
Bq        -1.2190701425     2.0785771813    -0.0641536630
Bq        -1.2536479745     2.2995210376     0.8076193498
Bq        -1.2152281612     2.0540278639    -0.1610173311
Bq        -1.2344380679     2.1767744508     0.3233010093
Bq        -1.2373070950     2.2982636001     0.3956346480
Bq        -1.2296231323     2.2491649653     0.2019073118
Bq        -1.2411490763     2.3228129174     0.4924983161
Bq        -1.2257811510     2.2246156479     0.1050436437
Bq        -1.2449910576     2.3473622348     0.5893619842
Bq        -1.2219391697     2.2000663306     0.0081799756
Bq        -1.2488330390     2.3719115522     0.6862256523
Bq        -1.2180971883     2.1755170132    -0.0886836925
Bq        -1.2526750203     2.3964608696     0.7830893203
Bq        -1.2142552070     2.1509676958    -0.1855473606
Bq        -1.2334651136     2.2737142827     0.2987709799
Bq        -1.2363341407     2.3952034320     0.3711046186
Bq        -1.2286501781     2.3461047973     0.1773772824
Bq        -1.2401761221     2.4197527494     0.4679682866
Bq        -1.2248081968     2.3215554799     0.0805136143
Bq        -1.2440181034     2.4443020668     0.5648319547
Bq        -1.2209662154     2.2970061625    -0.0163500538
Bq        -1.2478600847     2.4688513841     0.6616956228
Bq        -1.2171242341     2.2724568451    -0.1132137219
Bq        -1.2517020661     2.4934007015     0.7585592909
Bq        -1.2132822528     2.2479075278    -0.2100773900
Bq        -1.2324921594     2.3706541146     0.2742409505
Bq        -1.2353611865     2.4921432640     0.3465745891
Bq        -1.2276772239     2.4430446292     0.1528472530
Bq        -1.2392031678     2.5166925813     0.4434382572
Bq        -1.2238352425     2.4184953118     0.0559835849
Bq        -1.2430451492     2.5412418987     0.5403019253
Bq        -1.2199932612     2.3939459944    -0.0408800832
Bq        -1.2468871305     2.5657912161     0.6371655934
Bq        -1.2161512799     2.3693966771    -0.1377437513
Bq        -1.2507291118     2.5903405335     0.7340292615
Bq        -1.2123092985     2.3448473597    -0.2346074194
Bq        -1.2315192052     2.4675939466     0.2497109210
Bq        -1.2343882323     2.5890830959     0.3220445597
Bq        -1.2267042696     2.5399844611     0.1283172235
Bq        -1.2382302136     2.6136324133     0.4189082278
Bq        -1.2228622883     2.5154351438     0.0314535554
Bq        -1.2420721950     2.6381817306     0.5157718959
Bq        -1.2190203070     2.4908858264    -0.0654101127
Bq        -1.2459141763     2.6627310480     0.6126355640
Bq        -1.2151783257     2.4663365090    -0.1622737807
Bq        -1.2497561576     2.6872803654     0.7094992321
Bq        -1.2113363443     2.4417871916    -0.2591374488
Bq        -1.2305462510     2.5645337785     0.2251808916
Bq        -1.2334152781     2.6860229278     0.2975145303
Bq        -1.2257313154     2.6369242931     0.1037871941
Bq        -1.2372572594     2.7105722452     0.3943781984
Bq        -1.2218893341     2.6123749757     0.0069235260
Bq        -1.2410992407     2.7351215626     0.4912418665
Bq        -1.2180473528     2.5878256583    -0.0899401421
Bq        -1.2449412221     2.7596708800     0.5881055345
Bq        -1.2142053714     2.5632763409    -0.1868038102
Bq        -1.2487832034     2.7842201973     0.6849692026
Bq        -1.2103633901     2.5387270236    -0.2836674783
Bq        -1.2295732967     2.6614736105     0.2006508622
Bq        -1.2324423238     2.7829627598     0.2729845009
Bq        -1.2247583612     2.7338641250     0.0792571647
Bq        -1.2362843052     2.8075120771     0.3698481689
Bq        -1.2209163799     2.7093148076    -0.0176065034
Bq        -1.2401262865     2.8320613945     0.4667118370
Bq        -1.2170743985     2.6847654903    -0.1144701715
Bq        -1.2439682678     2.8566107119     0.5635755051
Bq        -1.2132324172     2.6602161729    -0.2113338396
Bq        -1.2478102492     2.8811600293     0.6604391732
Bq        -1.2093904359     2.6356668555    -0.3081975077
Bq        -1.2286003425     2.7584134424     0.1761208328
Bq        -1.2314693696     2.8799025917     0.2484544714
Bq        -1.2237854070     2.8308039570     0.0547271352
Bq        -1.2353113510     2.9044519091     0.3453181395
Bq        -1.2199434256     2.8062546396    -0.0421365328
Bq        -1.2391533323     2.9290012265     0.4421818076
Bq        -1.2161014443     2.7817053222    -0.1390002009
Bq        -1.2429953136     2.9535505438     0.5390454757
Bq        -1.2122594630     2.7571560048    -0.2358638690
Bq        -1.2468372949     2.9780998612     0.6359091438
Bq        -1.2084174816     2.7326066875    -0.3327275371
Bq        -1.2276273883     2.8553532743     0.1515908033
Bq        -1.2304964154     2.9768424236     0.2239244420
Bq        -1.2228124527     2.9277437889     0.0301971058
Bq        -1.2343383967     3.0013917410     0.3207881101
Bq        -1.2189704714     2.9031944715    -0.0666665623
Bq        -1.2381803781     3.0259410584     0.4176517782
Bq        -1.2151284901     2.8786451541    -0.1635302304
Bq        -1.2420223594     3.0504903758     0.5145154463
Bq        -1.2112865088     2.8540958368    -0.2603938985
Bq        -1.2458643407     3.0750396931     0.6113791144
Bq        -1.2074445274     2.8295465194    -0.3572575665
Bq        -1.2266544341     2.9522931063     0.1270607739
Bq        -1.2295234612     3.0737822556     0.1993944126
Bq        -1.2218394985     3.0246836208     0.0056670764
Bq        -1.2333654425     3.0983315730     0.2962580807
Bq        -1.2179975172     3.0001343035    -0.0911965917
Bq        -1.2372074238     3.1228808903     0.3931217487
Bq        -1.2141555359     2.9755849861    -0.1880602598
Bq        -1.2410494052     3.1474302077     0.4899854168
Bq        -1.2103135545     2.9510356687    -0.2849239279
Bq        -1.2448913865     3.1719795251     0.5868490849
Bq        -1.2064715732     2.9264863513    -0.3817875960
Bq        -1.2256814798     3.0492329382     0.1025307445
Bq        -1.2285505069     3.1707220875     0.1748643831
Bq        -1.2208665443     3.1216234528    -0.0188629530
Bq        -1.2323924883     3.1952714049     0.2717280512
Bq        -1.2170245630     3.0970741354    -0.1157266211
Bq        -1.2362344696     3.2198207223     0.3685917193
Bq        -1.2131825816     3.0725248180    -0.2125902892
Bq        -1.2400764509     3.2443700397     0.4654553874
Bq        -1.2093406003     3.0479755006    -0.3094539573
Bq        -1.2439184323     3.2689193570     0.5623190555
Bq        -1.2054986190     3.0234261833    -0.4063176254
Bq        -1.2247085256     3.1461727701     0.0780007151
Bq        -1.2275775527     3.2676619195     0.1503343537
Bq        -1.2198935901     3.2185632847    -0.0433929825
Bq        -1.2314195341     3.2922112368     0.2471980218
Bq        -1.2160516087     3.1940139673    -0.1402566506
Bq        -1.2352615154     3.3167605542     0.3440616899
Bq        -1.2122096274     3.1694646500    -0.2371203186
Bq        -1.2391034967     3.3413098716     0.4409253580
Bq        -1.2083676461     3.1449153326    -0.3339839867
Bq        -1.2429454780     3.3658591890     0.5377890261
Bq        -1.2045256647     3.1203660152    -0.4308476548
Bq        -1.2237355714     3.2431126021     0.0534706856
Bq        -1.2266045985     3.3646017514     0.1258043243
Bq        -1.2189206358     3.3155031167    -0.0679230119
Bq        -1.2304465798     3.3891510688     0.2226679924
Bq        -1.2150786545     3.2909537993    -0.1647866800
Bq        -1.2342885612     3.4137003862     0.3195316605
Bq        -1.2112366732     3.2664044819    -0.2616503481
Bq        -1.2381305425     3.4382497035     0.4163953286
Bq        -1.2073946919     3.2418551645    -0.3585140162
Bq        -1.2419725238     3.4627990209     0.5132589966
Bq        -1.2035527105     3.2173058471    -0.4553776843
Bq        -1.2227626172     3.3400524340     0.0289406562
Bq        -1.2256316443     3.4615415833     0.1012742949
Bq        -1.2179476816     3.4124429486    -0.0924530413
Bq        -1.2294736256     3.4860909007     0.1981379630
Bq        -1.2141057003     3.3878936312    -0.1893167094
Bq        -1.2333156069     3.5106402181     0.2950016310
Bq        -1.2102637190     3.3633443138    -0.2861803775
Bq        -1.2371575883     3.5351895355     0.3918652991
Bq        -1.2064217376     3.3387949965    -0.3830440456
Bq        -1.2409995696     3.5597388528     0.4887289672
Bq        -1.2025797563     3.3142456791    -0.4799077137
Bq        -1.2217896629     3.4369922660     0.0044106268
Bq        -1.2246586901     3.5584814153     0.0767442654

1
2
3
4
5
6
7
8
9
10
11
12
13
14
15
16
17
18
19
20
21
22
23
24
25
26
27
28
29
30
31
32
33
34
35
36
37
38
39
40
41
42
43
44
45
46
47
48
49
50
51
52
53
54
55
56
57
58
59
60
61
62
63
64
65
66
67
68
69
70
71
72
73
74
75
76
77
78
79
80
81
82
83
84
85
86
87
88
89
90
91
92
93
94
95
96
97
98
99
100
101
102
103
104
105
106
107
108
109
110
111
112
113
114
115
116
117
118
119
120
121
122
123
124
125
126
127
128
129
130
131
132
133
134
135
136
137
138
139
140
141
142
143
144
145
146
147
148
149
150
151
152
153
154
155
156
157
158
159
160
161
162
163
164
165
166
167
168
169
170
171
172
173
174
175
176
177
178
179
180
181
182
183
184
185
186
187
188
189
190
191
192
193
194
195
196
197
198
199
200
201
202
203
204
205
206
207
208
209
210
211
212
213
214
215
216
217
218
219
220
221
222
223
224
225
226
227
228
229
230
231
232
233
234
235
236

