%nproc=8
%mem=1000MB
# rb3lyp/6-311+g** NMR geom=connectivity

Title

0 1
C    -4.0500558   -0.5771862    0.8136712
H    -5.0263804   -1.0082727    1.0024760
C    -3.9381552    0.6617804    0.2400876
H    -4.8252424    1.2338890   -0.0111295
C    -2.6768410    1.2433246    0.0057578
C    -1.4974121    0.5051527    0.2848253
C    -1.6508332   -0.7338728    0.9404026
H    -0.7713646   -1.2730967    1.2633753
C    -2.8898548   -1.2624035    1.1994307
H    -2.9683706   -2.2124563    1.7152676
C    -2.5773185    2.5963696   -0.4192930
H    -3.4870728    3.1412239   -0.6474055
C    -1.3741895    3.2147896   -0.4364030
H    -1.2997315    4.2742019   -0.6578144
C    -0.1719488    2.4994090   -0.1734588
C    -0.2043917    1.1018437    0.0192689
C     1.0513491    3.2042560   -0.0676222
H     1.0427344    4.2819499   -0.1896997
C     2.1942091    2.5487446    0.2579577
H     3.1168527    3.0912848    0.4334727
C     2.2216473    1.1336562    0.2934990
C     1.0486931    0.3945528    0.0302412
C     3.4483363    0.4614633    0.5573939
H     4.3095794    1.0606054    0.8334846
C     3.5427346   -0.8855926    0.4749463
H     4.4731467   -1.3939704    0.7038822
C     2.4490052   -1.6474447   -0.0196319
C     1.2150704   -1.0057258   -0.3013573
C     0.2531113   -1.7434440   -1.0216591
H    -0.6541356   -1.2535051   -1.3462847
C     0.4494193   -3.0628597   -1.3413779
H    -0.3083162   -3.5944309   -1.9054060
C     1.6251726   -3.7207967   -0.9552541
H     1.7670048   -4.7687404   -1.1927019
C     2.6109872   -3.0144177   -0.3183050
H     3.5525612   -3.4902813   -0.0646367
Bq         0.4805671528     2.1755170132    -0.0213082068
Bq         0.4459893209     2.3964608696     0.8504648060
Bq         0.4844091342     2.1509676958    -0.1181718749
Bq         0.4651992275     2.2737142827     0.3661464656
Bq         0.4623302004     2.3952034320     0.4384801042
Bq         0.4700141631     2.3461047973     0.2447527681
Bq         0.4584882191     2.4197527494     0.5353437723
Bq         0.4738561444     2.3215554799     0.1478891000
Bq         0.4546462378     2.4443020668     0.6322074404
Bq         0.4776981257     2.2970061625     0.0510254319
Bq         0.4508042564     2.4688513841     0.7290711085
Bq         0.4815401071     2.2724568451    -0.0458382362
Bq         0.4469622751     2.4934007015     0.8259347766
Bq         0.4853820884     2.2479075278    -0.1427019043
Bq         0.4661721817     2.3706541146     0.3416164362
Bq         0.4633031546     2.4921432640     0.4139500748
Bq         0.4709871173     2.4430446292     0.2202227386
Bq         0.4594611733     2.5166925813     0.5108137429
Bq         0.4748290986     2.4184953118     0.1233590706
Bq         0.4556191920     2.5412418987     0.6076774110
Bq         0.4786710800     2.3939459944     0.0264954025
Bq         0.4517772107     2.5657912161     0.7045410791
Bq         0.4825130613     2.3693966771    -0.0703682656
Bq         0.4479352293     2.5903405335     0.8014047472
Bq         0.4863550426     2.3448473597    -0.1672319337
Bq         0.4671451360     2.4675939466     0.3170864067
Bq         0.4642761089     2.5890830959     0.3894200454
Bq         0.4719600715     2.5399844611     0.1956927092
Bq         0.4604341275     2.6136324133     0.4862837135
Bq         0.4758020529     2.5154351438     0.0988290411
Bq         0.4565921462     2.6381817306     0.5831473816
Bq         0.4796440342     2.4908858264     0.0019653730
Bq         0.4527501649     2.6627310480     0.6800110497
Bq         0.4834860155     2.4663365090    -0.0948982951
Bq         0.4489081835     2.6872803654     0.7768747178
Bq         0.4873279968     2.4417871916    -0.1917619631
Bq         0.4681180902     2.5645337785     0.2925563773
Bq         0.4652490631     2.6860229278     0.3648900160
Bq         0.4729330257     2.6369242931     0.1711626798
Bq         0.4614070818     2.7105722452     0.4617536841
Bq         0.4767750071     2.6123749757     0.0742990117
Bq         0.4575651004     2.7351215626     0.5586173521
Bq         0.4806169884     2.5878256583    -0.0225646564
Bq         0.4537231191     2.7596708800     0.6554810202
Bq         0.4844589697     2.5632763409    -0.1194283245
Bq         0.4498811378     2.7842201973     0.7523446883
Bq         0.4883009511     2.5387270236    -0.2162919926
Bq         0.4690910444     2.6614736105     0.2680263479
Bq         0.4662220173     2.7829627598     0.3403599865
Bq         0.4739059800     2.7338641250     0.1466326504
Bq         0.4623800360     2.8075120771     0.4372236546
Bq         0.4777479613     2.7093148076     0.0497689823
Bq         0.4585380547     2.8320613945     0.5340873227
Bq         0.4815899426     2.6847654903    -0.0470946858
Bq         0.4546960733     2.8566107119     0.6309509908
Bq         0.4854319240     2.6602161729    -0.1439583539
Bq         0.4508540920     2.8811600293     0.7278146589
Bq         0.4892739053     2.6356668555    -0.2408220220
Bq         0.4700639986     2.7584134424     0.2434963185
Bq         0.4671949715     2.8799025917     0.3158299571
Bq         0.4748789342     2.8308039570     0.1221026209
Bq         0.4633529902     2.9044519091     0.4126936252
Bq         0.4787209155     2.8062546396     0.0252389528
Bq         0.4595110089     2.9290012265     0.5095572933
Bq         0.4825628969     2.7817053222    -0.0716247152
Bq         0.4556690276     2.9535505438     0.6064209614
Bq         0.4864048782     2.7571560048    -0.1684883833
Bq         0.4518270462     2.9780998612     0.7032846295
Bq         0.4902468595     2.7326066875    -0.2653520514
Bq         0.4710369529     2.8553532743     0.2189662890
Bq         0.4681679258     2.9768424236     0.2912999277
Bq         0.4758518884     2.9277437889     0.0975725915
Bq         0.4643259444     3.0013917410     0.3881635958
Bq         0.4796938697     2.9031944715     0.0007089234
Bq         0.4604839631     3.0259410584     0.4850272639
Bq         0.4835358511     2.8786451541    -0.0961547447
Bq         0.4566419818     3.0504903758     0.5818909320
Bq         0.4873778324     2.8540958368    -0.1930184128
Bq         0.4528000004     3.0750396931     0.6787546000
Bq         0.4912198137     2.8295465194    -0.2898820809
Bq         0.4720099071     2.9522931063     0.1944362596
Bq         0.4691408800     3.0737822556     0.2667698983
Bq         0.4768248426     3.0246836208     0.0730425621
Bq         0.4652988987     3.0983315730     0.3636335663
Bq         0.4806668240     3.0001343035    -0.0238211060
Bq         0.4614569173     3.1228808903     0.4604972344
Bq         0.4845088053     2.9755849861    -0.1206847741
Bq         0.4576149360     3.1474302077     0.5573609025
Bq         0.4883507866     2.9510356687    -0.2175484422
Bq         0.4537729547     3.1719795251     0.6542245706
Bq         0.4921927680     2.9264863513    -0.3144121103
Bq         0.4729828613     3.0492329382     0.1699062302
Bq         0.4701138342     3.1707220875     0.2422398688
Bq         0.4777977969     3.1216234528     0.0485125327
Bq         0.4662718529     3.1952714049     0.3391035369
Bq         0.4816397782     3.0970741354    -0.0483511354
Bq         0.4624298716     3.2198207223     0.4359672050
Bq         0.4854817595     3.0725248180    -0.1452148035
Bq         0.4585878902     3.2443700397     0.5328308731
Bq         0.4893237409     3.0479755006    -0.2420784716
Bq         0.4547459089     3.2689193570     0.6296945412
Bq         0.4931657222     3.0234261833    -0.3389421397
Bq         0.4739558155     3.1461727701     0.1453762007
Bq         0.4710867884     3.2676619195     0.2177098394
Bq         0.4787707511     3.2185632847     0.0239825032
Bq         0.4672448071     3.2922112368     0.3145735075
Bq         0.4826127324     3.1940139673    -0.0728811649
Bq         0.4634028258     3.3167605542     0.4114371756
Bq         0.4864547138     3.1694646500    -0.1697448330
Bq         0.4595608444     3.3413098716     0.5083008437
Bq         0.4902966951     3.1449153326    -0.2666085010
Bq         0.4557188631     3.3658591890     0.6051645118
Bq         0.4941386764     3.1203660152    -0.3634721691
Bq         0.4749287698     3.2431126021     0.1208461713
Bq         0.4720597427     3.3646017514     0.1931798100
Bq         0.4797437053     3.3155031167    -0.0005475262
Bq         0.4682177613     3.3891510688     0.2900434781
Bq         0.4835856866     3.2909537993    -0.0974111943
Bq         0.4643757800     3.4137003862     0.3869071462
Bq         0.4874276680     3.2664044819    -0.1942748624
Bq         0.4605337987     3.4382497035     0.4837708142
Bq         0.4912696493     3.2418551645    -0.2911385305
Bq         0.4566918173     3.4627990209     0.5806344823
Bq         0.4951116306     3.2173058471    -0.3880021986
Bq         0.4759017240     3.3400524340     0.0963161419
Bq         0.4730326969     3.4615415833     0.1686497806
Bq         0.4807166595     3.4124429486    -0.0250775556
Bq         0.4691907156     3.4860909007     0.2655134486
Bq         0.4845586409     3.3878936312    -0.1219412237
Bq         0.4653487342     3.5106402181     0.3623771167
Bq         0.4884006222     3.3633443138    -0.2188048918
Bq         0.4615067529     3.5351895355     0.4592407848
Bq         0.4922426035     3.3387949965    -0.3156685599
Bq         0.4576647716     3.5597388528     0.5561044529
Bq         0.4960845849     3.3142456791    -0.4125322280
Bq         0.4768746782     3.4369922660     0.0717861125
Bq         0.4740056511     3.5584814153     0.1441197511
Bq         0.4816896138     3.5093827805    -0.0496075851
Bq         0.4701636698     3.5830307327     0.2409834192
Bq         0.4855315951     3.4848334632    -0.1464712531
Bq         0.4663216885     3.6075800500     0.3378470873
Bq         0.4893735764     3.4602841458    -0.2433349212
Bq         0.4624797071     3.6321293674     0.4347107554
Bq         0.4932155578     3.4357348284    -0.3401985893
Bq         0.4586377258     3.6566786848     0.5315744235
Bq         0.4970575391     3.4111855110    -0.4370622574
Bq         0.4778476324     3.5339320979     0.0472560830
Bq         0.4749786053     3.6554212472     0.1195897217
Bq         0.4826625680     3.6063226125    -0.0741376145
Bq         0.4711366240     3.6799705646     0.2164533898
Bq         0.4865045493     3.5817732951    -0.1710012826
Bq         0.4672946427     3.7045198820     0.3133170579
Bq         0.4903465306     3.5572239777    -0.2678649507
Bq         0.4634526613     3.7290691993     0.4101807260
Bq         0.4941885120     3.5326746603    -0.3647286188
Bq         0.4596106800     3.7536185167     0.5070443941
Bq         0.4980304933     3.5081253430    -0.4615922868
Bq         0.4788205867     3.6308719298     0.0227260536
Bq         0.4759515596     3.7523610792     0.0950596923
Bq         0.4836355222     3.7032624444    -0.0986676439
Bq         0.4721095782     3.7769103965     0.1919233604
Bq         0.4874775035     3.6787131270    -0.1955313120
Bq         0.4682675969     3.8014597139     0.2887870284
Bq         0.4913194849     3.6541638097    -0.2923949801
Bq         0.4644256156     3.8260090313     0.3856506965
Bq         0.4951614662     3.6296144923    -0.3892586482
Bq         0.4605836342     3.8505583487     0.4825143646
Bq         0.4990034475     3.6050651749    -0.4861223163
Bq         0.4797935409     3.7278117618    -0.0018039758
Bq         0.4769245138     3.8493009111     0.0705296628
Bq         0.4846084764     3.8002022763    -0.1231976733
Bq         0.4730825325     3.8738502285     0.1673933309
Bq         0.4884504578     3.7756529590    -0.2200613414
Bq         0.4692405511     3.8983995458     0.2642569990
Bq         0.4922924391     3.7511036416    -0.3169250095
Bq         0.4653985698     3.9229488632     0.3611206671
Bq         0.4961344204     3.7265543242    -0.4137886776
Bq         0.4615565885     3.9474981806     0.4579843352
Bq         0.4999764018     3.7020050068    -0.5106523457
Bq         0.4807664951     3.8247515937    -0.0263340052
Bq         0.4778974680     3.9462407430     0.0459996334
Bq         0.4855814307     3.8971421083    -0.1477277028
Bq         0.4740554867     3.9707900604     0.1428633015
Bq         0.4894234120     3.8725927909    -0.2445913709
Bq         0.4702135053     3.9953393778     0.2397269696
Bq         0.4932653933     3.8480434735    -0.3414550389
Bq         0.4663715240     4.0198886952     0.3365906377
Bq         0.4971073747     3.8234941562    -0.4383187070
Bq         0.4625295427     4.0444380125     0.4334543058
Bq         0.5009493560     3.7989448388    -0.5351823751
Bq         0.4817394493     3.9216914257    -0.0508640347
Bq         0.4788704222     4.0431805750     0.0214696040
Bq         0.4865543849     3.9940819402    -0.1722577322
Bq         0.4750284409     4.0677298924     0.1183332721
Bq         0.4903963662     3.9695326228    -0.2691214003
Bq         0.4711864596     4.0922792097     0.2151969402
Bq         0.4942383475     3.9449833055    -0.3659850684
Bq         0.4673444782     4.1168285271     0.3120606083
Bq         0.4980803289     3.9204339881    -0.4628487365
Bq         0.4635024969     4.1413778445     0.4089242763

1
2
3
4
5
6
7
8
9
10
11
12
13
14
15
16
17
18
19
20
21
22
23
24
25
26
27
28
29
30
31
32
33
34
35
36
37
38
39
40
41
42
43
44
45
46
47
48
49
50
51
52
53
54
55
56
57
58
59
60
61
62
63
64
65
66
67
68
69
70
71
72
73
74
75
76
77
78
79
80
81
82
83
84
85
86
87
88
89
90
91
92
93
94
95
96
97
98
99
100
101
102
103
104
105
106
107
108
109
110
111
112
113
114
115
116
117
118
119
120
121
122
123
124
125
126
127
128
129
130
131
132
133
134
135
136
137
138
139
140
141
142
143
144
145
146
147
148
149
150
151
152
153
154
155
156
157
158
159
160
161
162
163
164
165
166
167
168
169
170
171
172
173
174
175
176
177
178
179
180
181
182
183
184
185
186
187
188
189
190
191
192
193
194
195
196
197
198
199
200
201
202
203
204
205
206
207
208
209
210
211
212
213
214
215
216
217
218
219
220
221
222
223
224
225
226
227
228
229
230
231
232
233
234
235
236

