%nproc=8
%mem=1000MB
# rb3lyp/6-311+g** NMR geom=connectivity

Title

0 1
C    -4.0500558   -0.5771862    0.8136712
H    -5.0263804   -1.0082727    1.0024760
C    -3.9381552    0.6617804    0.2400876
H    -4.8252424    1.2338890   -0.0111295
C    -2.6768410    1.2433246    0.0057578
C    -1.4974121    0.5051527    0.2848253
C    -1.6508332   -0.7338728    0.9404026
H    -0.7713646   -1.2730967    1.2633753
C    -2.8898548   -1.2624035    1.1994307
H    -2.9683706   -2.2124563    1.7152676
C    -2.5773185    2.5963696   -0.4192930
H    -3.4870728    3.1412239   -0.6474055
C    -1.3741895    3.2147896   -0.4364030
H    -1.2997315    4.2742019   -0.6578144
C    -0.1719488    2.4994090   -0.1734588
C    -0.2043917    1.1018437    0.0192689
C     1.0513491    3.2042560   -0.0676222
H     1.0427344    4.2819499   -0.1896997
C     2.1942091    2.5487446    0.2579577
H     3.1168527    3.0912848    0.4334727
C     2.2216473    1.1336562    0.2934990
C     1.0486931    0.3945528    0.0302412
C     3.4483363    0.4614633    0.5573939
H     4.3095794    1.0606054    0.8334846
C     3.5427346   -0.8855926    0.4749463
H     4.4731467   -1.3939704    0.7038822
C     2.4490052   -1.6474447   -0.0196319
C     1.2150704   -1.0057258   -0.3013573
C     0.2531113   -1.7434440   -1.0216591
H    -0.6541356   -1.2535051   -1.3462847
C     0.4494193   -3.0628597   -1.3413779
H    -0.3083162   -3.5944309   -1.9054060
C     1.6251726   -3.7207967   -0.9552541
H     1.7670048   -4.7687404   -1.1927019
C     2.6109872   -3.0144177   -0.3183050
H     3.5525612   -3.4902813   -0.0646367
Bq        -0.2798595561     3.5215173482    -0.0134320511
Bq        -0.3811912274     3.5559117438     0.6783402510
Bq        -0.2653836030     3.5166038632    -0.1122566657
Bq        -0.3956671804     3.5608252289     0.7771648656
Bq        -0.2509076500     3.5116903781    -0.2110812802
Bq        -0.3232874152     3.5362578035     0.2830417927
Bq        -0.3370512343     3.6410505039     0.3770048025
Bq        -0.3080993282     3.6312235338     0.1793555733
Bq        -0.3515271874     3.6459639890     0.4758294171
Bq        -0.2936233752     3.6263100487     0.0805309587
Bq        -0.3660031404     3.6508774741     0.5746540317
Bq        -0.2791474221     3.6213965636    -0.0182936558
Bq        -0.3804790934     3.6557909592     0.6734786463
Bq        -0.2646714691     3.6164830785    -0.1171182704
Bq        -0.3949550465     3.6607044443     0.7723032608
Bq        -0.2501955160     3.6115695935    -0.2159428850
Bq        -0.3225752813     3.6361370189     0.2781801879
Bq        -0.3363391004     3.7409297193     0.3721431977
Bq        -0.3073871943     3.7311027492     0.1744939686
Bq        -0.3508150534     3.7458432044     0.4709678123
Bq        -0.2929112412     3.7261892641     0.0756693540
Bq        -0.3652910065     3.7507566895     0.5697924269
Bq        -0.2784352882     3.7212757790    -0.0231552606
Bq        -0.3797669595     3.7556701746     0.6686170415
Bq        -0.2639593351     3.7163622939    -0.1219798752
Bq        -0.3942429125     3.7605836597     0.7674416561
Bq        -0.2494833821     3.7114488088    -0.2208044898
Bq        -0.3218631473     3.7360162342     0.2733185831
Bq        -0.3356269664     3.8408089347     0.3672815930
Bq        -0.3066750603     3.8309819645     0.1696323638
Bq        -0.3501029195     3.8457224198     0.4661062075
Bq        -0.2921991073     3.8260684795     0.0708077492
Bq        -0.3645788725     3.8506359049     0.5649308221
Bq        -0.2777231543     3.8211549944    -0.0280168654
Bq        -0.3790548256     3.8555493900     0.6637554367
Bq        -0.2632472012     3.8162415093    -0.1268414800
Bq        -0.3935307786     3.8604628750     0.7625800513
Bq        -0.2487712482     3.8113280242    -0.2256660945
Bq        -0.3211510134     3.8358954496     0.2684569784
Bq        -0.3349148325     3.9406881501     0.3624199882
Bq        -0.3059629264     3.9308611799     0.1647707590
Bq        -0.3493907855     3.9456016352     0.4612446028
Bq        -0.2914869734     3.9259476948     0.0659461444
Bq        -0.3638667386     3.9505151202     0.5600692174
Bq        -0.2770110203     3.9210342098    -0.0328784701
Bq        -0.3783426916     3.9554286053     0.6588938320
Bq        -0.2625350673     3.9161207247    -0.1317030847
Bq        -0.3928186447     3.9603420904     0.7577184465
Bq        -0.2480591142     3.9112072396    -0.2305276993
Bq        -0.3204388794     3.9357746650     0.2635953736
Bq        -0.3342026985     4.0405673655     0.3575583834
Bq        -0.3052507925     4.0307403953     0.1599091543
Bq        -0.3486786516     4.0454808505     0.4563829980
Bq        -0.2907748394     4.0258269102     0.0610845397
Bq        -0.3631546046     4.0503943356     0.5552076126
Bq        -0.2762988864     4.0209134251    -0.0377400749
Bq        -0.3776305577     4.0553078207     0.6540322272
Bq        -0.2618229333     4.0159999400    -0.1365646895
Bq        -0.3921065107     4.0602213058     0.7528568418
Bq        -0.2473469803     4.0110864550    -0.2353893041
Bq        -0.3197267455     4.0356538804     0.2587337688
Bq        -0.3334905646     4.1404465808     0.3526967787
Bq        -0.3045386585     4.1306196107     0.1550475495
Bq        -0.3479665176     4.1453600659     0.4515213932
Bq        -0.2900627055     4.1257061256     0.0562229349
Bq        -0.3624424707     4.1502735510     0.5503460078
Bq        -0.2755867524     4.1207926405    -0.0426016797
Bq        -0.3769184237     4.1551870361     0.6491706224
Bq        -0.2611107994     4.1158791554    -0.1414262943
Bq        -0.3913943768     4.1601005212     0.7479952370
Bq        -0.2466348463     4.1109656703    -0.2402509088
Bq        -0.3190146116     4.1355330958     0.2538721641
Bq        -0.3327784307     4.2403257962     0.3478351739
Bq        -0.3038265246     4.2304988260     0.1501859447
Bq        -0.3472543837     4.2452392813     0.4466597885
Bq        -0.2893505715     4.2255853410     0.0513613301
Bq        -0.3617303368     4.2501527664     0.5454844031
Bq        -0.2748746185     4.2206718559    -0.0474632844
Bq        -0.3762062898     4.2550662515     0.6443090177
Bq        -0.2603986654     4.2157583708    -0.1462878990
Bq        -0.3906822428     4.2599797365     0.7431336322
Bq        -0.2459227124     4.2108448857    -0.2451125136
Bq        -0.3183024776     4.2354123111     0.2490105593
Bq        -0.3320662967     4.3402050116     0.3429735691
Bq        -0.3031143906     4.3303780414     0.1453243400
Bq        -0.3465422498     4.3451184967     0.4417981837
Bq        -0.2886384376     4.3254645563     0.0464997254
Bq        -0.3610182028     4.3500319818     0.5406227983
Bq        -0.2741624845     4.3205510713    -0.0523248892
Bq        -0.3754941559     4.3549454668     0.6394474129
Bq        -0.2596865315     4.3156375862    -0.1511495038
Bq        -0.3899701089     4.3598589519     0.7382720275
Bq        -0.2452105785     4.3107241011    -0.2499741184
Bq        -0.3175903437     4.3352915265     0.2441489545
Bq        -0.2687288699    -0.6537557573     0.6005472664
Bq        -0.2397769638    -0.6635827274     0.4028980372
Bq        -0.2832048230    -0.6488422722     0.6993718810
Bq        -0.2253010108    -0.6684962125     0.3040734226
Bq        -0.2976807760    -0.6439287871     0.7981964955
Bq        -0.2108250578    -0.6734096976     0.2052488080
Bq        -0.3121567291    -0.6390153020     0.8970211101
Bq        -0.1963491047    -0.6783231827     0.1064241934
Bq        -0.3266326821    -0.6341018169     0.9958457247
Bq        -0.1818731517    -0.6832366678     0.0075995789
Bq        -0.2542529169    -0.6586692423     0.5017226518
Bq        -0.2680167360    -0.5538765419     0.5956856616
Bq        -0.2390648299    -0.5637035121     0.3980364324
Bq        -0.2824926890    -0.5489630568     0.6945102762
Bq        -0.2245888769    -0.5686169971     0.2992118178
Bq        -0.2969686421    -0.5440495717     0.7933348908
Bq        -0.2101129238    -0.5735304822     0.2003872033
Bq        -0.3114445951    -0.5391360866     0.8921595054
Bq        -0.1956369708    -0.5784439673     0.1015625887
Bq        -0.3259205482    -0.5342226016     0.9909841199
Bq        -0.1811610177    -0.5833574524     0.0027379741
Bq        -0.2535407829    -0.5587900270     0.4968610470
Bq        -0.2673046020    -0.4539973265     0.5908240568
Bq        -0.2383526960    -0.4638242967     0.3931748277
Bq        -0.2817805551    -0.4490838414     0.6896486714
Bq        -0.2238767429    -0.4687377818     0.2943502131
Bq        -0.2962565081    -0.4441703563     0.7884732860
Bq        -0.2094007899    -0.4736512668     0.1955255985
Bq        -0.3107324612    -0.4392568713     0.8872979006
Bq        -0.1949248368    -0.4785647519     0.0967009839
Bq        -0.3252084142    -0.4343433862     0.9861225152
Bq        -0.1804488838    -0.4834782370    -0.0021236307
Bq        -0.2528286490    -0.4589108116     0.4919994423
Bq        -0.2665924681    -0.3541181111     0.5859624521
Bq        -0.2376405620    -0.3639450813     0.3883132229
Bq        -0.2810684212    -0.3492046261     0.6847870667
Bq        -0.2231646090    -0.3688585664     0.2894886083
Bq        -0.2955443742    -0.3442911410     0.7836116812
Bq        -0.2086886559    -0.3737720515     0.1906639937
Bq        -0.3100203272    -0.3393776559     0.8824362958
Bq        -0.1942127029    -0.3786855365     0.0918393791
Bq        -0.3244962803    -0.3344641708     0.9812609104
Bq        -0.1797367498    -0.3835990216    -0.0069852354
Bq        -0.2521165151    -0.3590315962     0.4871378375
Bq        -0.2658803342    -0.2542388958     0.5811008473
Bq        -0.2369284281    -0.2640658659     0.3834516181
Bq        -0.2803562872    -0.2493254107     0.6799254619
Bq        -0.2224524750    -0.2689793510     0.2846270035
Bq        -0.2948322403    -0.2444119256     0.7787500765
Bq        -0.2079765220    -0.2738928361     0.1858023890
Bq        -0.3093081933    -0.2394984405     0.8775746911
Bq        -0.1935005689    -0.2788063212     0.0869777744
Bq        -0.3237841463    -0.2345849554     0.9763993056
Bq        -0.1790246159    -0.2837198063    -0.0118468402
Bq        -0.2514043811    -0.2591523808     0.4822762327
Bq        -0.2651682002    -0.1543596804     0.5762392425
Bq        -0.2362162941    -0.1641866505     0.3785900134
Bq        -0.2796441533    -0.1494461953     0.6750638571
Bq        -0.2217403411    -0.1691001356     0.2797653988
Bq        -0.2941201063    -0.1445327102     0.7738884717
Bq        -0.2072643880    -0.1740136207     0.1809407842
Bq        -0.3085960594    -0.1396192251     0.8727130863
Bq        -0.1927884350    -0.1789271058     0.0821161696
Bq        -0.3230720124    -0.1347057400     0.9715377009
Bq        -0.1783124820    -0.1838405909    -0.0167084450
Bq        -0.2506922472    -0.1592731655     0.4774146280
Bq        -0.2644560663    -0.0544804650     0.5713776378
Bq        -0.2355041602    -0.0643074352     0.3737284086
Bq        -0.2789320193    -0.0495669799     0.6702022524
Bq        -0.2210282072    -0.0692209203     0.2749037940
Bq        -0.2934079724    -0.0446534948     0.7690268669
Bq        -0.2065522541    -0.0741344053     0.1760791794
Bq        -0.3078839254    -0.0397400098     0.8678514815
Bq        -0.1920763011    -0.0790478904     0.0772545648
Bq        -0.3223598785    -0.0348265247     0.9666760961
Bq        -0.1776003480    -0.0839613755    -0.0215700497
Bq        -0.2499801132    -0.0593939501     0.4725530232
Bq        -0.2637439323     0.0453987504     0.5665160330
Bq        -0.2347920263     0.0355717802     0.3688668038
Bq        -0.2782198854     0.0503122355     0.6653406476
Bq        -0.2203160732     0.0306582951     0.2700421892
Bq        -0.2926958384     0.0552257205     0.7641652622
Bq        -0.2058401202     0.0257448100     0.1712175747
Bq        -0.3071717915     0.0601392056     0.8629898768
Bq        -0.1913641671     0.0208313250     0.0723929601
Bq        -0.3216477445     0.0650526907     0.9618144913
Bq        -0.1768882141     0.0159178399    -0.0264316545
Bq        -0.2492679793     0.0404852653     0.4676914184
Bq        -0.2630317984     0.1452779658     0.5616544282
Bq        -0.2340798923     0.1354509956     0.3640051991
Bq        -0.2775077514     0.1501914508     0.6604790428
Bq        -0.2196039393     0.1305375105     0.2651805845
Bq        -0.2919837045     0.1551049359     0.7593036574
Bq        -0.2051279862     0.1256240254     0.1663559699
Bq        -0.3064596575     0.1600184210     0.8581282720
Bq        -0.1906520332     0.1207105403     0.0675313553
Bq        -0.3209356106     0.1649319061     0.9569528866
Bq        -0.1761760801     0.1157970553    -0.0312932593
Bq        -0.2485558454     0.1403644807     0.4628298137
Bq        -0.2623196645     0.2451571811     0.5567928235
Bq        -0.2333677584     0.2353302110     0.3591435943
Bq        -0.2767956175     0.2500706662     0.6556174381
Bq        -0.2188918053     0.2304167259     0.2603189797
Bq        -0.2912715705     0.2549841513     0.7544420526
Bq        -0.2044158523     0.2255032408     0.1614943651
Bq        -0.3057475236     0.2598976364     0.8532666672

1
2
3
4
5
6
7
8
9
10
11
12
13
14
15
16
17
18
19
20
21
22
23
24
25
26
27
28
29
30
31
32
33
34
35
36
37
38
39
40
41
42
43
44
45
46
47
48
49
50
51
52
53
54
55
56
57
58
59
60
61
62
63
64
65
66
67
68
69
70
71
72
73
74
75
76
77
78
79
80
81
82
83
84
85
86
87
88
89
90
91
92
93
94
95
96
97
98
99
100
101
102
103
104
105
106
107
108
109
110
111
112
113
114
115
116
117
118
119
120
121
122
123
124
125
126
127
128
129
130
131
132
133
134
135
136
137
138
139
140
141
142
143
144
145
146
147
148
149
150
151
152
153
154
155
156
157
158
159
160
161
162
163
164
165
166
167
168
169
170
171
172
173
174
175
176
177
178
179
180
181
182
183
184
185
186
187
188
189
190
191
192
193
194
195
196
197
198
199
200
201
202
203
204
205
206
207
208
209
210
211
212
213
214
215
216
217
218
219
220
221
222
223
224
225
226
227
228
229
230
231
232
233
234
235
236

