%nproc=8
%mem=1000MB
# rb3lyp/6-311+g** NMR geom=connectivity

Title

0 1
C    -4.0500558   -0.5771862    0.8136712
H    -5.0263804   -1.0082727    1.0024760
C    -3.9381552    0.6617804    0.2400876
H    -4.8252424    1.2338890   -0.0111295
C    -2.6768410    1.2433246    0.0057578
C    -1.4974121    0.5051527    0.2848253
C    -1.6508332   -0.7338728    0.9404026
H    -0.7713646   -1.2730967    1.2633753
C    -2.8898548   -1.2624035    1.1994307
H    -2.9683706   -2.2124563    1.7152676
C    -2.5773185    2.5963696   -0.4192930
H    -3.4870728    3.1412239   -0.6474055
C    -1.3741895    3.2147896   -0.4364030
H    -1.2997315    4.2742019   -0.6578144
C    -0.1719488    2.4994090   -0.1734588
C    -0.2043917    1.1018437    0.0192689
C     1.0513491    3.2042560   -0.0676222
H     1.0427344    4.2819499   -0.1896997
C     2.1942091    2.5487446    0.2579577
H     3.1168527    3.0912848    0.4334727
C     2.2216473    1.1336562    0.2934990
C     1.0486931    0.3945528    0.0302412
C     3.4483363    0.4614633    0.5573939
H     4.3095794    1.0606054    0.8334846
C     3.5427346   -0.8855926    0.4749463
H     4.4731467   -1.3939704    0.7038822
C     2.4490052   -1.6474447   -0.0196319
C     1.2150704   -1.0057258   -0.3013573
C     0.2531113   -1.7434440   -1.0216591
H    -0.6541356   -1.2535051   -1.3462847
C     0.4494193   -3.0628597   -1.3413779
H    -0.3083162   -3.5944309   -1.9054060
C     1.6251726   -3.7207967   -0.9552541
H     1.7670048   -4.7687404   -1.1927019
C     2.6109872   -3.0144177   -0.3183050
H     3.5525612   -3.4902813   -0.0646367
Bq         0.2237462227    -3.4994747888    -0.4135834333
Bq         0.6223638605    -3.2333182777    -1.2912306804
Bq         0.4230550416    -3.3663965333    -0.8524070568
Bq         0.3721868045    -3.2966192017    -0.7404090817
Bq         0.4519103320    -3.2433878995    -0.9159385311
Bq         0.3323250407    -3.3232348528    -0.6526443570
Bq         0.4917720958    -3.2167722484    -1.0037032558
Bq         0.2924632769    -3.3498505039    -0.5648796322
Bq         0.5316338596    -3.1901565972    -1.0914679805
Bq         0.2526015131    -3.3764661550    -0.4771149075
Bq         0.5714956234    -3.1635409461    -1.1792327052
Bq         0.2127397493    -3.4030818061    -0.3893501828
Bq         0.6113573872    -3.1369252950    -1.2669974299
Bq         0.4120485682    -3.2700035506    -0.8281738064
Bq         0.3611803311    -3.2002262190    -0.7161758312
Bq         0.4409038587    -3.1469949167    -0.8917052806
Bq         0.3213185673    -3.2268418701    -0.6284111065
Bq         0.4807656224    -3.1203792656    -0.9794700054
Bq         0.2814568035    -3.2534575212    -0.5406463818
Bq         0.5206273862    -3.0937636145    -1.0672347301
Bq         0.2415950397    -3.2800731723    -0.4528816571
Bq         0.5604891500    -3.0671479634    -1.1549994548
Bq         0.2017332759    -3.3066888234    -0.3651169324
Bq         0.6003509138    -3.0405323123    -1.2427641795
Bq         0.4010420949    -3.1736105679    -0.8039405559
Bq         0.3501738577    -3.1038332362    -0.6919425808
Bq         0.4298973853    -3.0506019340    -0.8674720302
Bq         0.3103120939    -3.1304488874    -0.6041778560
Bq         0.4697591491    -3.0239862829    -0.9552367549
Bq         0.2704503301    -3.1570645385    -0.5164131313
Bq         0.5096209129    -2.9973706318    -1.0430014796
Bq         0.2305885663    -3.1836801896    -0.4286484066
Bq         0.5494826766    -2.9707549807    -1.1307662043
Bq         0.1907268026    -3.2102958407    -0.3408836819
Bq         0.5893444404    -2.9441393296    -1.2185309290
Bq         0.3900356215    -3.0772175851    -0.7797073055
Bq         0.3391673843    -3.0074402535    -0.6677093303
Bq         0.4188909119    -2.9542089513    -0.8432387797
Bq         0.2993056205    -3.0340559046    -0.5799446056
Bq         0.4587526757    -2.9275933002    -0.9310035044
Bq         0.2594438568    -3.0606715558    -0.4921798809
Bq         0.4986144395    -2.9009776491    -1.0187682291
Bq         0.2195820930    -3.0872872069    -0.4044151562
Bq         0.5384762033    -2.8743619980    -1.1065329539
Bq         0.1797203292    -3.1139028580    -0.3166504314
Bq         0.5783379671    -2.8477463469    -1.1942976786
Bq         0.3790291481    -2.9808246024    -0.7554740550
Bq         0.3281609110    -2.9110472708    -0.6434760798
Bq         0.4078844385    -2.8578159686    -0.8190055293
Bq         0.2882991472    -2.9376629219    -0.5557113551
Bq         0.4477462023    -2.8312003175    -0.9067702540
Bq         0.2484373834    -2.9642785730    -0.4679466304
Bq         0.4876079661    -2.8045846664    -0.9945349787
Bq         0.2085756196    -2.9908942241    -0.3801819057
Bq         0.5274697299    -2.7779690153    -1.0822997034
Bq         0.1687138558    -3.0175098753    -0.2924171810
Bq         0.5673314937    -2.7513533642    -1.1700644281
Bq         0.3680226747    -2.8844316197    -0.7312408046
Bq         0.3171544376    -2.8146542881    -0.6192428294
Bq         0.3968779652    -2.7614229859    -0.7947722788
Bq         0.2772926738    -2.8412699392    -0.5314781047
Bq         0.4367397290    -2.7348073348    -0.8825370035
Bq         0.2374309100    -2.8678855903    -0.4437133800
Bq         0.4766014927    -2.7081916837    -0.9703017282
Bq         0.1975691462    -2.8945012414    -0.3559486552
Bq         0.5164632565    -2.6815760326    -1.0580664529
Bq         0.1577073824    -2.9211168925    -0.2681839305
Bq         0.5563250203    -2.6549603815    -1.1458311777
Bq         0.3570162014    -2.7880386370    -0.7070075541
Bq         0.3061479642    -2.7182613054    -0.5950095789
Bq         0.3858714918    -2.6650300032    -0.7705390283
Bq         0.2662862004    -2.7448769565    -0.5072448542
Bq         0.4257332556    -2.6384143521    -0.8583037531
Bq         0.2264244366    -2.7714926076    -0.4194801295
Bq         0.4655950194    -2.6117987010    -0.9460684778
Bq         0.1865626729    -2.7981082587    -0.3317154048
Bq         0.5054567832    -2.5851830499    -1.0338332025
Bq         0.1467009091    -2.8247239098    -0.2439506801
Bq         0.5453185469    -2.5585673988    -1.1215979272
Bq         0.3460097280    -2.6916456543    -0.6827743036
Bq         0.2951414908    -2.6218683227    -0.5707763285
Bq         0.3748650184    -2.5686370205    -0.7463057779
Bq         0.2552797271    -2.6484839738    -0.4830116038
Bq         0.4147267822    -2.5420213694    -0.8340705026
Bq         0.2154179633    -2.6750996249    -0.3952468790
Bq         0.4545885460    -2.5154057183    -0.9218352273
Bq         0.1755561995    -2.7017152760    -0.3074821543
Bq         0.4944503098    -2.4887900672    -1.0095999520
Bq         0.1356944357    -2.7283309271    -0.2197174296
Bq         0.5343120736    -2.4621744160    -1.0973646767
Bq         0.3350032546    -2.5952526716    -0.6585410532
Bq         0.2841350175    -2.5254753400    -0.5465430780
Bq         0.3638585450    -2.4722440378    -0.7220725274
Bq         0.2442732537    -2.5520909911    -0.4587783533
Bq         0.4037203088    -2.4456283867    -0.8098372521
Bq         0.2044114899    -2.5787066422    -0.3710136286
Bq         0.4435820726    -2.4190127355    -0.8976019769
Bq         0.1645497261    -2.6053222933    -0.2832489039
Bq         0.4834438364    -2.3923970844    -0.9853667016
Bq         0.1246879623    -2.6319379444    -0.1954841792
Bq         0.5233056002    -2.3657814333    -1.0731314263
Bq         0.3239967813    -2.4988596889    -0.6343078027
Bq         0.2731285441    -2.4290823573    -0.5223098275
Bq         0.3528520717    -2.3758510550    -0.6978392770
Bq         0.2332667803    -2.4556980084    -0.4345451028
Bq         0.3927138355    -2.3492354039    -0.7856040017
Bq         0.1934050165    -2.4823136595    -0.3467803781
Bq         0.4325755993    -2.3226197528    -0.8733687264
Bq         0.1535432527    -2.5089293106    -0.2590156534
Bq         0.4724373630    -2.2960041017    -0.9611334511
Bq         0.1136814890    -2.5355449617    -0.1712509287
Bq         0.5122991268    -2.2693884506    -1.0488981758
Bq         0.3129903079    -2.4024667062    -0.6100745523
Bq         0.2621220707    -2.3326893746    -0.4980765771
Bq         0.3418455983    -2.2794580723    -0.6736060265
Bq         0.2222603069    -2.3593050257    -0.4103118524
Bq         0.3817073621    -2.2528424212    -0.7613707512
Bq         0.1823985432    -2.3859206768    -0.3225471277
Bq         0.4215691259    -2.2262267701    -0.8491354759
Bq         0.1425367794    -2.4125363279    -0.2347824030
Bq         0.4614308897    -2.1996111190    -0.9369002007
Bq         0.1026750156    -2.4391519790    -0.1470176782
Bq         0.5012926535    -2.1729954679    -1.0246649254
Bq         0.3019838345    -2.3060737234    -0.5858413018
Bq         0.2511155974    -2.2362963918    -0.4738433266
Bq         0.3308391249    -2.1830650896    -0.6493727761
Bq         0.2112538336    -2.2629120429    -0.3860786019
Bq         0.3707008887    -2.1564494385    -0.7371375008
Bq         0.1713920698    -2.2895276941    -0.2983138772
Bq         0.4105626525    -2.1298337874    -0.8249022255
Bq         0.1315303060    -2.3161433452    -0.2105491525
Bq         0.4504244163    -2.1032181363    -0.9126669502
Bq         0.0916685422    -2.3427589963    -0.1227844278
Bq         0.4902861801    -2.0766024852    -1.0004316749
Bq         0.2909773611    -2.2096807407    -0.5616080513
Bq         0.2401091240    -2.1399034091    -0.4496100762
Bq         0.3198326516    -2.0866721069    -0.6251395256
Bq         0.2002473602    -2.1665190602    -0.3618453515
Bq         0.3596944153    -2.0600564558    -0.7129042503
Bq         0.1603855964    -2.1931347113    -0.2740806267
Bq         0.3995561791    -2.0334408047    -0.8006689750
Bq         0.1205238326    -2.2197503624    -0.1863159020
Bq         0.4394179429    -2.0068251536    -0.8884336997
Bq         0.0806620688    -2.2463660136    -0.0985511773
Bq         0.4792797067    -1.9802095025    -0.9761984245
Bq         0.2799708878    -2.1132877580    -0.5373748009
Bq         0.2291026506    -2.0435104264    -0.4253768257
Bq         0.3088261782    -1.9902791242    -0.6009062751
Bq         0.1892408868    -2.0701260775    -0.3376121010
Bq         0.3486879420    -1.9636634731    -0.6886709999
Bq         0.1493791230    -2.0967417286    -0.2498473763
Bq         0.3885497058    -1.9370478220    -0.7764357246
Bq         0.1095173593    -2.1233573797    -0.1620826516
Bq         0.4284114696    -1.9104321709    -0.8642004493
Bq         0.0696555955    -2.1499730308    -0.0743179269
Bq         0.4682732333    -1.8838165198    -0.9519651740
Bq         0.2689644144    -2.0168947753    -0.5131415504
Bq         0.2180961772    -1.9471174437    -0.4011435753
Bq         0.2978197048    -1.8938861415    -0.5766730247
Bq         0.1782344135    -1.9737330948    -0.3133788505
Bq         0.3376814686    -1.8672704904    -0.6644377494
Bq         0.1383726497    -2.0003487459    -0.2256141258
Bq         0.3775432324    -1.8406548393    -0.7522024741
Bq         0.0985108859    -2.0269643970    -0.1378494011
Bq         0.4174049962    -1.8140391882    -0.8399671988
Bq         0.0586491221    -2.0535800481    -0.0500846764
Bq         0.4572667600    -1.7874235371    -0.9277319235
Bq         0.2579579410    -1.9205017926    -0.4889083000
Bq         0.2070897039    -1.8507244610    -0.3769103248
Bq         0.2868132314    -1.7974931588    -0.5524397742
Bq         0.1672279401    -1.8773401121    -0.2891456001
Bq         0.3266749952    -1.7708775077    -0.6402044989
Bq         0.1273661763    -1.9039557632    -0.2013808754
Bq         0.3665367590    -1.7442618566    -0.7279692237
Bq         0.0875044125    -1.9305714143    -0.1136161507
Bq         0.4063985228    -1.7176462055    -0.8157339484
Bq         0.0476426487    -1.9571870654    -0.0258514260
Bq         0.4462602866    -1.6910305543    -0.9034986731
Bq         0.2469514677    -1.8241088099    -0.4646750495
Bq         0.1960832305    -1.7543314783    -0.3526770743
Bq         0.2758067581    -1.7011001761    -0.5282065238
Bq         0.1562214667    -1.7809471294    -0.2649123496
Bq         0.3156685219    -1.6744845250    -0.6159712485
Bq         0.1163597029    -1.8075627805    -0.1771476249
Bq         0.3555302856    -1.6478688739    -0.7037359732
Bq         0.0764979391    -1.8341784316    -0.0893829002
Bq         0.3953920494    -1.6212532227    -0.7915006979
Bq         0.0366361753    -1.8607940827    -0.0016181755
Bq         0.4352538132    -1.5946375716    -0.8792654226
Bq         0.2359449943    -1.7277158272    -0.4404417991
Bq         0.1850767571    -1.6579384956    -0.3284438239
Bq         0.2648002847    -1.6047071934    -0.5039732733
Bq         0.1452149933    -1.6845541467    -0.2406790992
Bq         0.3046620485    -1.5780915422    -0.5917379980
Bq         0.1053532295    -1.7111697978    -0.1529143745
Bq         0.3445238123    -1.5514758911    -0.6795027227
Bq         0.0654914658    -1.7377854489    -0.0651496497
Bq         0.3843855761    -1.5248602400    -0.7672674474
Bq         0.0256297020    -1.7644011000     0.0226150750
Bq         0.4242473398    -1.4982445889    -0.8550321722

1
2
3
4
5
6
7
8
9
10
11
12
13
14
15
16
17
18
19
20
21
22
23
24
25
26
27
28
29
30
31
32
33
34
35
36
37
38
39
40
41
42
43
44
45
46
47
48
49
50
51
52
53
54
55
56
57
58
59
60
61
62
63
64
65
66
67
68
69
70
71
72
73
74
75
76
77
78
79
80
81
82
83
84
85
86
87
88
89
90
91
92
93
94
95
96
97
98
99
100
101
102
103
104
105
106
107
108
109
110
111
112
113
114
115
116
117
118
119
120
121
122
123
124
125
126
127
128
129
130
131
132
133
134
135
136
137
138
139
140
141
142
143
144
145
146
147
148
149
150
151
152
153
154
155
156
157
158
159
160
161
162
163
164
165
166
167
168
169
170
171
172
173
174
175
176
177
178
179
180
181
182
183
184
185
186
187
188
189
190
191
192
193
194
195
196
197
198
199
200
201
202
203
204
205
206
207
208
209
210
211
212
213
214
215
216
217
218
219
220
221
222
223
224
225
226
227
228
229
230
231
232
233
234
235
236

