%nproc=8
%mem=1000MB
# rb3lyp/6-311+g** NMR geom=connectivity

Title

0 1
C    -4.0500558   -0.5771862    0.8136712
H    -5.0263804   -1.0082727    1.0024760
C    -3.9381552    0.6617804    0.2400876
H    -4.8252424    1.2338890   -0.0111295
C    -2.6768410    1.2433246    0.0057578
C    -1.4974121    0.5051527    0.2848253
C    -1.6508332   -0.7338728    0.9404026
H    -0.7713646   -1.2730967    1.2633753
C    -2.8898548   -1.2624035    1.1994307
H    -2.9683706   -2.2124563    1.7152676
C    -2.5773185    2.5963696   -0.4192930
H    -3.4870728    3.1412239   -0.6474055
C    -1.3741895    3.2147896   -0.4364030
H    -1.2997315    4.2742019   -0.6578144
C    -0.1719488    2.4994090   -0.1734588
C    -0.2043917    1.1018437    0.0192689
C     1.0513491    3.2042560   -0.0676222
H     1.0427344    4.2819499   -0.1896997
C     2.1942091    2.5487446    0.2579577
H     3.1168527    3.0912848    0.4334727
C     2.2216473    1.1336562    0.2934990
C     1.0486931    0.3945528    0.0302412
C     3.4483363    0.4614633    0.5573939
H     4.3095794    1.0606054    0.8334846
C     3.5427346   -0.8855926    0.4749463
H     4.4731467   -1.3939704    0.7038822
C     2.4490052   -1.6474447   -0.0196319
C     1.2150704   -1.0057258   -0.3013573
C     0.2531113   -1.7434440   -1.0216591
H    -0.6541356   -1.2535051   -1.3462847
C     0.4494193   -3.0628597   -1.3413779
H    -0.3083162   -3.5944309   -1.9054060
C     1.6251726   -3.7207967   -0.9552541
H     1.7670048   -4.7687404   -1.1927019
C     2.6109872   -3.0144177   -0.3183050
H     3.5525612   -3.4902813   -0.0646367
Bq        -2.4843980602     0.1498160267     0.7184941912
Bq        -2.4868760292     0.4541950457     1.3488490694
Bq        -2.4840440646     0.1063333097     0.6284434943
Bq        -2.4872300248     0.4976777627     1.4388997663
Bq        -2.4836900690     0.0628505927     0.5383927975
Bq        -2.4854600469     0.2802641777     0.9886462819
Bq        -2.4856431102     0.4137982874     1.0352145977
Bq        -2.4849351191     0.3268328534     0.8551132040
Bq        -2.4859971058     0.4572810044     1.1252652946
Bq        -2.4845811235     0.2833501364     0.7650625071
Bq        -2.4863511014     0.5007637214     1.2153159915
Bq        -2.4842271279     0.2398674194     0.6750118102
Bq        -2.4867050969     0.5442464384     1.3053666884
Bq        -2.4838731323     0.1963847023     0.5849611133
Bq        -2.4870590925     0.5877291554     1.3954173853
Bq        -2.4835191368     0.1529019853     0.4949104164
Bq        -2.4852891146     0.3703155704     0.9451639008
Bq        -2.4854721779     0.5038496800     0.9917322167
Bq        -2.4847641868     0.4168842460     0.8116308229
Bq        -2.4858261735     0.5473323970     1.0817829136
Bq        -2.4844101912     0.3734015290     0.7215801260
Bq        -2.4861801691     0.5908151140     1.1718336105
Bq        -2.4840561956     0.3299188120     0.6315294292
Bq        -2.4865341647     0.6342978311     1.2618843073
Bq        -2.4837022001     0.2864360950     0.5414787323
Bq        -2.4868881602     0.6777805481     1.3519350042
Bq        -2.4833482045     0.2429533780     0.4514280354
Bq        -2.4851181824     0.4603669630     0.9016815198
Bq        -2.4853012457     0.5939010727     0.9482498357
Bq        -2.4845932545     0.5069356387     0.7681484419
Bq        -2.4856552412     0.6373837897     1.0383005325
Bq        -2.4842392589     0.4634529217     0.6780977450
Bq        -2.4860092368     0.6808665067     1.1283512294
Bq        -2.4838852634     0.4199702047     0.5880470481
Bq        -2.4863632324     0.7243492237     1.2184019263
Bq        -2.4835312678     0.3764874877     0.4979963512
Bq        -2.4867172280     0.7678319407     1.3084526232
Bq        -2.4831772722     0.3330047707     0.4079456544
Bq        -2.4849472501     0.5504183557     0.8581991388
Bq        -2.4851303134     0.6839524654     0.9047674546
Bq        -2.4844223222     0.5969870314     0.7246660609
Bq        -2.4854843090     0.7274351824     0.9948181515
Bq        -2.4840683267     0.5535043144     0.6346153640
Bq        -2.4858383045     0.7709178994     1.0848688484
Bq        -2.4837143311     0.5100215974     0.5445646671
Bq        -2.4861923001     0.8144006164     1.1749195453
Bq        -2.4833603355     0.4665388804     0.4545139702
Bq        -2.4865462957     0.8578833334     1.2649702422
Bq        -2.4830063399     0.4230561634     0.3644632733
Bq        -2.4847763178     0.6404697484     0.8147167577
Bq        -2.4849593811     0.7740038581     0.8612850736
Bq        -2.4842513900     0.6870384240     0.6811836798
Bq        -2.4853133767     0.8174865751     0.9513357705
Bq        -2.4838973944     0.6435557070     0.5911329829
Bq        -2.4856673723     0.8609692921     1.0413864674
Bq        -2.4835433988     0.6000729900     0.5010822861
Bq        -2.4860213678     0.9044520091     1.1314371642
Bq        -2.4831894032     0.5565902730     0.4110315892
Bq        -2.4863753634     0.9479347261     1.2214878611
Bq        -2.4828354077     0.5131075560     0.3209808923
Bq        -2.4846053855     0.7305211410     0.7712343767
Bq        -2.4847884488     0.8640552507     0.8178026926
Bq        -2.4840804577     0.7770898167     0.6377012988
Bq        -2.4851424444     0.9075379677     0.9078533894
Bq        -2.4837264621     0.7336070997     0.5476506019
Bq        -2.4854964400     0.9510206847     0.9979040863
Bq        -2.4833724665     0.6901243827     0.4575999050
Bq        -2.4858504356     0.9945034017     1.0879547832
Bq        -2.4830184710     0.6466416657     0.3675492081
Bq        -2.4862044311     1.0379861187     1.1780054801
Bq        -2.4826644754     0.6031589487     0.2774985113
Bq        -2.4844344533     0.8205725337     0.7277519957
Bq        -2.4846175166     0.9541066434     0.7743203115
Bq        -2.4839095254     0.8671412094     0.5942189178
Bq        -2.4849715121     0.9975893604     0.8643710084
Bq        -2.4835555298     0.8236584924     0.5041682209
Bq        -2.4853255077     1.0410720774     0.9544217053
Bq        -2.4832015343     0.7801757754     0.4141175240
Bq        -2.4856795033     1.0845547944     1.0444724022
Bq        -2.4828475387     0.7366930584     0.3240668271
Bq        -2.4860334989     1.1280375114     1.1345230991
Bq        -2.4824935431     0.6932103414     0.2340161302
Bq        -2.4842635210     0.9106239264     0.6842696146
Bq        -2.4844465843     1.0441580361     0.7308379305
Bq        -2.4837385931     0.9571926021     0.5507365367
Bq        -2.4848005799     1.0876407531     0.8208886274
Bq        -2.4833845976     0.9137098850     0.4606858398
Bq        -2.4851545754     1.1311234701     0.9109393243
Bq        -2.4830306020     0.8702271680     0.3706351430
Bq        -2.4855085710     1.1746061871     1.0009900211
Bq        -2.4826766064     0.8267444510     0.2805844461
Bq        -2.4858625666     1.2180889041     1.0910407180
Bq        -2.4823226108     0.7832617340     0.1905337492
Bq        -2.4840925887     1.0006753191     0.6407872336
Bq        -2.4842756520     1.1342094287     0.6873555495
Bq        -2.4835676609     1.0472439947     0.5072541557
Bq        -2.4846296476     1.1776921457     0.7774062463
Bq        -2.4832136653     1.0037612777     0.4172034588
Bq        -2.4849836432     1.2211748627     0.8674569432
Bq        -2.4828596697     0.9602785607     0.3271527619
Bq        -2.4853376387     1.2646575797     0.9575076401
Bq        -2.4825056741     0.9167958437     0.2371020651
Bq        -2.4856916343     1.3081402968     1.0475583370
Bq        -2.4821516786     0.8733131267     0.1470513682
Bq        -2.4839216564     1.0907267117     0.5973048526
Bq        -2.4841047197     1.2242608214     0.6438731684
Bq        -2.4833967286     1.1372953874     0.4637717747
Bq        -2.4844587153     1.2677435384     0.7339238653
Bq        -2.4830427330     1.0938126704     0.3737210778
Bq        -2.4848127109     1.3112262554     0.8239745622
Bq        -2.4826887374     1.0503299534     0.2836703809
Bq        -2.4851667065     1.3547089724     0.9140252591
Bq        -2.4823347419     1.0068472364     0.1936196840
Bq        -2.4855207020     1.3981916894     1.0040759560
Bq        -2.4819807463     0.9633645194     0.1035689871
Bq        -2.4837507242     1.1807781044     0.5538224715
Bq        -2.4839337875     1.3143122141     0.6003907874
Bq        -2.4832257963     1.2273467801     0.4202893936
Bq        -2.4842877830     1.3577949311     0.6904414843
Bq        -2.4828718007     1.1838640631     0.3302386968
Bq        -2.4846417786     1.4012776481     0.7804921812
Bq        -2.4825178052     1.1403813461     0.2401879999
Bq        -2.4849957742     1.4447603651     0.8705428780
Bq        -2.4821638096     1.0968986291     0.1501373030
Bq        -2.4853497698     1.4882430821     0.9605935749
Bq        -2.4818098140     1.0534159120     0.0600866061
Bq        -2.4835797919     1.2708294971     0.5103400905
Bq        -2.4837628552     1.4043636067     0.5569084064
Bq        -2.4830548640     1.3173981727     0.3768070126
Bq        -2.4841168508     1.4478463237     0.6469591032
Bq        -2.4827008685     1.2739154557     0.2867563157
Bq        -2.4844708463     1.4913290408     0.7370098001
Bq        -2.4823468729     1.2304327387     0.1967056188
Bq        -2.4848248419     1.5348117578     0.8270604970
Bq        -2.4819928773     1.1869500217     0.1066549220
Bq        -2.4851788375     1.5782944748     0.9171111939
Bq        -2.4816388817     1.1434673047     0.0166042251
Bq        -2.4834088596     1.3608808897     0.4668577095
Bq        -2.4835919229     1.4944149994     0.5134260253
Bq        -2.4828839318     1.4074495654     0.3333246316
Bq        -2.4839459185     1.5378977164     0.6034767222
Bq        -2.4825299362     1.3639668484     0.2432739347
Bq        -2.4842999141     1.5813804334     0.6935274191
Bq        -2.4821759406     1.3204841314     0.1532232378
Bq        -2.4846539096     1.6248631504     0.7835781160
Bq        -2.4818219450     1.2770014144     0.0631725409
Bq        -2.4850079052     1.6683458674     0.8736288129
Bq        -2.4814679495     1.2335186974    -0.0268781560
Bq        -2.4832379273     1.4509322824     0.4233753285
Bq        -2.4834209906     1.5844663921     0.4699436443
Bq        -2.4827129995     1.4975009581     0.2898422505
Bq        -2.4837749862     1.6279491091     0.5599943412
Bq        -2.4823590039     1.4540182411     0.1997915537
Bq        -2.4841289818     1.6714318261     0.6500450381
Bq        -2.4820050083     1.4105355241     0.1097408568
Bq        -2.4844829774     1.7149145431     0.7400957349
Bq        -2.4816510128     1.3670528071     0.0196901599
Bq        -2.4848369729     1.7583972601     0.8301464318
Bq        -2.4812970172     1.3235700901    -0.0703605370
Bq        -2.4830669951     1.5409836751     0.3798929474
Bq        -2.4832500584     1.6745177848     0.4264612633
Bq        -2.4825420672     1.5875523507     0.2463598695
Bq        -2.4836040539     1.7180005018     0.5165119602
Bq        -2.4821880716     1.5440696337     0.1563091726
Bq        -2.4839580495     1.7614832188     0.6065626570
Bq        -2.4818340761     1.5005869167     0.0662584757
Bq        -2.4843120451     1.8049659358     0.6966133539
Bq        -2.4814800805     1.4571041997    -0.0237922211
Bq        -2.4846660407     1.8484486528     0.7866640508
Bq        -2.4811260849     1.4136214827    -0.1138429180
Bq        -2.4828960628     1.6310350678     0.3364105664
Bq        -2.4830791261     1.7645691774     0.3829788822
Bq        -2.4823711349     1.6776037434     0.2028774885
Bq        -2.4834331217     1.8080518944     0.4730295791
Bq        -2.4820171394     1.6341210264     0.1128267916
Bq        -2.4837871172     1.8515346114     0.5630802760
Bq        -2.4816631438     1.5906383094     0.0227760947
Bq        -2.4841411128     1.8950173284     0.6531309729
Bq        -2.4813091482     1.5471555924    -0.0672746022
Bq        -2.4844951084     1.9385000454     0.7431816698
Bq        -2.4809551526     1.5036728754    -0.1573252991
Bq        -2.4827251305     1.7210864604     0.2929281854
Bq        -2.4829081938     1.8546205701     0.3394965012
Bq        -2.4822002027     1.7676551361     0.1593951074
Bq        -2.4832621894     1.8981032871     0.4295471981
Bq        -2.4818462071     1.7241724191     0.0693444106
Bq        -2.4836161850     1.9415860041     0.5195978950
Bq        -2.4814922115     1.6806897021    -0.0207062863
Bq        -2.4839701805     1.9850687211     0.6096485919
Bq        -2.4811382159     1.6372069851    -0.1107569832
Bq        -2.4843241761     2.0285514381     0.6996992887
Bq        -2.4807842204     1.5937242681    -0.2008076801
Bq        -2.4825541982     1.8111378531     0.2494458043
Bq        -2.4827372615     1.9446719628     0.2960141202
Bq        -2.4820292704     1.8577065288     0.1159127264
Bq        -2.4830912571     1.9881546798     0.3860648171
Bq        -2.4816752748     1.8142238118     0.0258620295
Bq        -2.4834452527     2.0316373968     0.4761155139
Bq        -2.4813212792     1.7707410947    -0.0641886674
Bq        -2.4837992483     2.0751201138     0.5661662108

1
2
3
4
5
6
7
8
9
10
11
12
13
14
15
16
17
18
19
20
21
22
23
24
25
26
27
28
29
30
31
32
33
34
35
36
37
38
39
40
41
42
43
44
45
46
47
48
49
50
51
52
53
54
55
56
57
58
59
60
61
62
63
64
65
66
67
68
69
70
71
72
73
74
75
76
77
78
79
80
81
82
83
84
85
86
87
88
89
90
91
92
93
94
95
96
97
98
99
100
101
102
103
104
105
106
107
108
109
110
111
112
113
114
115
116
117
118
119
120
121
122
123
124
125
126
127
128
129
130
131
132
133
134
135
136
137
138
139
140
141
142
143
144
145
146
147
148
149
150
151
152
153
154
155
156
157
158
159
160
161
162
163
164
165
166
167
168
169
170
171
172
173
174
175
176
177
178
179
180
181
182
183
184
185
186
187
188
189
190
191
192
193
194
195
196
197
198
199
200
201
202
203
204
205
206
207
208
209
210
211
212
213
214
215
216
217
218
219
220
221
222
223
224
225
226
227
228
229
230
231
232
233
234
235
236

