%nproc=8
%mem=1000MB
# rb3lyp/6-311+g** NMR geom=connectivity

Title

0 1
C    -4.0500558   -0.5771862    0.8136712
H    -5.0263804   -1.0082727    1.0024760
C    -3.9381552    0.6617804    0.2400876
H    -4.8252424    1.2338890   -0.0111295
C    -2.6768410    1.2433246    0.0057578
C    -1.4974121    0.5051527    0.2848253
C    -1.6508332   -0.7338728    0.9404026
H    -0.7713646   -1.2730967    1.2633753
C    -2.8898548   -1.2624035    1.1994307
H    -2.9683706   -2.2124563    1.7152676
C    -2.5773185    2.5963696   -0.4192930
H    -3.4870728    3.1412239   -0.6474055
C    -1.3741895    3.2147896   -0.4364030
H    -1.2997315    4.2742019   -0.6578144
C    -0.1719488    2.4994090   -0.1734588
C    -0.2043917    1.1018437    0.0192689
C     1.0513491    3.2042560   -0.0676222
H     1.0427344    4.2819499   -0.1896997
C     2.1942091    2.5487446    0.2579577
H     3.1168527    3.0912848    0.4334727
C     2.2216473    1.1336562    0.2934990
C     1.0486931    0.3945528    0.0302412
C     3.4483363    0.4614633    0.5573939
H     4.3095794    1.0606054    0.8334846
C     3.5427346   -0.8855926    0.4749463
H     4.4731467   -1.3939704    0.7038822
C     2.4490052   -1.6474447   -0.0196319
C     1.2150704   -1.0057258   -0.3013573
C     0.2531113   -1.7434440   -1.0216591
H    -0.6541356   -1.2535051   -1.3462847
C     0.4494193   -3.0628597   -1.3413779
H    -0.3083162   -3.5944309   -1.9054060
C     1.6251726   -3.7207967   -0.9552541
H     1.7670048   -4.7687404   -1.1927019
C     2.6109872   -3.0144177   -0.3183050
H     3.5525612   -3.4902813   -0.0646367
Bq        -0.1229193259    -3.3232348528    -0.8594112951
Bq         0.0365277292    -3.2167722484    -1.2104701940
Bq        -0.1627810897    -3.3498505039    -0.7716465704
Bq         0.0763894930    -3.1901565972    -1.2982349187
Bq        -0.2026428535    -3.3764661550    -0.6838818457
Bq         0.1162512568    -3.1635409461    -1.3859996434
Bq        -0.2425046173    -3.4030818061    -0.5961171210
Bq         0.1561130206    -3.1369252950    -1.4737643681
Bq        -0.0431957983    -3.2700035506    -1.0349407445
Bq        -0.0940640355    -3.2002262190    -0.9229427694
Bq        -0.0143405079    -3.1469949167    -1.0984722188
Bq        -0.1339257993    -3.2268418701    -0.8351780446
Bq         0.0255212559    -3.1203792656    -1.1862369435
Bq        -0.1737875631    -3.2534575212    -0.7474133199
Bq         0.0653830197    -3.0937636145    -1.2740016682
Bq        -0.2136493269    -3.2800731723    -0.6596485952
Bq         0.1052447834    -3.0671479634    -1.3617663929
Bq        -0.2535110906    -3.3066888234    -0.5718838705
Bq         0.1451065472    -3.0405323123    -1.4495311176
Bq        -0.0542022717    -3.1736105679    -1.0107074941
Bq        -0.1050705089    -3.1038332362    -0.8987095189
Bq        -0.0253469813    -3.0506019340    -1.0742389683
Bq        -0.1449322726    -3.1304488874    -0.8109447942
Bq         0.0145147825    -3.0239862829    -1.1620036930
Bq        -0.1847940364    -3.1570645385    -0.7231800695
Bq         0.0543765463    -2.9973706318    -1.2497684177
Bq        -0.2246558002    -3.1836801896    -0.6354153448
Bq         0.0942383101    -2.9707549807    -1.3375331425
Bq        -0.2645175640    -3.2102958407    -0.5476506200
Bq         0.1341000739    -2.9441393296    -1.4252978672
Bq        -0.0652087451    -3.0772175851    -0.9864742436
Bq        -0.1160769822    -3.0074402535    -0.8744762684
Bq        -0.0363534547    -2.9542089513    -1.0500057179
Bq        -0.1559387460    -3.0340559046    -0.7867115437
Bq         0.0035083091    -2.9275933002    -1.1377704426
Bq        -0.1958005098    -3.0606715558    -0.6989468190
Bq         0.0433700729    -2.9009776491    -1.2255351673
Bq        -0.2356622736    -3.0872872069    -0.6111820943
Bq         0.0832318367    -2.8743619980    -1.3132998920
Bq        -0.2755240374    -3.1139028580    -0.5234173696
Bq         0.1230936005    -2.8477463469    -1.4010646167
Bq        -0.0762152184    -2.9808246024    -0.9622409932
Bq        -0.1270834556    -2.9110472708    -0.8502430180
Bq        -0.0473599280    -2.8578159686    -1.0257724674
Bq        -0.1669452194    -2.9376629219    -0.7624782933
Bq        -0.0074981642    -2.8312003175    -1.1135371921
Bq        -0.2068069832    -2.9642785730    -0.6747135686
Bq         0.0323635995    -2.8045846664    -1.2013019168
Bq        -0.2466687470    -2.9908942241    -0.5869488438
Bq         0.0722253633    -2.7779690153    -1.2890666415
Bq        -0.2865305108    -3.0175098753    -0.4991841191
Bq         0.1120871271    -2.7513533642    -1.3768313663
Bq        -0.0872216918    -2.8844316197    -0.9380077427
Bq        -0.1380899290    -2.8146542881    -0.8260097675
Bq        -0.0583664014    -2.7614229859    -1.0015392169
Bq        -0.1779516928    -2.8412699392    -0.7382450428
Bq        -0.0185046376    -2.7348073348    -1.0893039417
Bq        -0.2178134566    -2.8678855903    -0.6504803181
Bq         0.0213571262    -2.7081916837    -1.1770686664
Bq        -0.2576752203    -2.8945012414    -0.5627155934
Bq         0.0612188900    -2.6815760326    -1.2648333911
Bq        -0.2975369841    -2.9211168925    -0.4749508687
Bq         0.1010806537    -2.6549603815    -1.3525981158
Bq        -0.0982281652    -2.7880386370    -0.9137744922
Bq        -0.1490964024    -2.7182613054    -0.8017765171
Bq        -0.0693728748    -2.6650300032    -0.9773059665
Bq        -0.1889581661    -2.7448769565    -0.7140117924
Bq        -0.0295111110    -2.6384143521    -1.0650706912
Bq        -0.2288199299    -2.7714926076    -0.6262470676
Bq         0.0103506528    -2.6117987010    -1.1528354159
Bq        -0.2686816937    -2.7981082587    -0.5384823429
Bq         0.0502124166    -2.5851830499    -1.2406001406
Bq        -0.3085434575    -2.8247239098    -0.4507176182
Bq         0.0900741804    -2.5585673988    -1.3283648653
Bq        -0.1092346386    -2.6916456543    -0.8895412418
Bq        -0.1601028757    -2.6218683227    -0.7775432666
Bq        -0.0803793481    -2.5686370205    -0.9530727160
Bq        -0.1999646395    -2.6484839738    -0.6897785419
Bq        -0.0405175844    -2.5420213694    -1.0408374407
Bq        -0.2398264033    -2.6750996249    -0.6020138172
Bq        -0.0006558206    -2.5154057183    -1.1286021655
Bq        -0.2796881671    -2.7017152760    -0.5142490925
Bq         0.0392059432    -2.4887900672    -1.2163668902
Bq        -0.3195499309    -2.7283309271    -0.4264843678
Bq         0.0790677070    -2.4621744160    -1.3041316149
Bq        -0.1202411119    -2.5952526716    -0.8653079913
Bq        -0.1711093491    -2.5254753400    -0.7533100161
Bq        -0.0913858215    -2.4722440378    -0.9288394656
Bq        -0.2109711129    -2.5520909911    -0.6655452914
Bq        -0.0515240577    -2.4456283867    -1.0166041903
Bq        -0.2508328767    -2.5787066422    -0.5777805667
Bq        -0.0116622939    -2.4190127355    -1.1043689150
Bq        -0.2906946405    -2.6053222933    -0.4900158420
Bq         0.0281994698    -2.3923970844    -1.1921336397
Bq        -0.3305564042    -2.6319379444    -0.4022511173
Bq         0.0680612336    -2.3657814333    -1.2798983644
Bq        -0.1312475853    -2.4988596889    -0.8410747409
Bq        -0.1821158225    -2.4290823573    -0.7290767657
Bq        -0.1023922949    -2.3758510550    -0.9046062151
Bq        -0.2219775863    -2.4556980084    -0.6413120410
Bq        -0.0625305311    -2.3492354039    -0.9923709398
Bq        -0.2618393500    -2.4823136595    -0.5535473163
Bq        -0.0226687673    -2.3226197528    -1.0801356645
Bq        -0.3017011138    -2.5089293106    -0.4657825916
Bq         0.0171929965    -2.2960041017    -1.1679003893
Bq        -0.3415628776    -2.5355449617    -0.3780178668
Bq         0.0570547603    -2.2693884506    -1.2556651140
Bq        -0.1422540587    -2.4024667062    -0.8168414904
Bq        -0.1931222958    -2.3326893746    -0.7048435152
Bq        -0.1133987683    -2.2794580723    -0.8803729647
Bq        -0.2329840596    -2.3593050257    -0.6170787905
Bq        -0.0735370045    -2.2528424212    -0.9681376894
Bq        -0.2728458234    -2.3859206768    -0.5293140658
Bq        -0.0336752407    -2.2262267701    -1.0559024141
Bq        -0.3127075872    -2.4125363279    -0.4415493411
Bq         0.0061865231    -2.1996111190    -1.1436671388
Bq        -0.3525693510    -2.4391519790    -0.3537846164
Bq         0.0460482869    -2.1729954679    -1.2314318635
Bq        -0.1532605321    -2.3060737234    -0.7926082399
Bq        -0.2041287692    -2.2362963918    -0.6806102648
Bq        -0.1244052416    -2.1830650896    -0.8561397142
Bq        -0.2439905330    -2.2629120429    -0.5928455401
Bq        -0.0845434778    -2.1564494385    -0.9439044389
Bq        -0.2838522968    -2.2895276941    -0.5050808153
Bq        -0.0446817141    -2.1298337874    -1.0316691636
Bq        -0.3237140606    -2.3161433452    -0.4173160906
Bq        -0.0048199503    -2.1032181363    -1.1194338883
Bq        -0.3635758244    -2.3427589963    -0.3295513659
Bq         0.0350418135    -2.0766024852    -1.2071986131
Bq        -0.1642670054    -2.2096807407    -0.7683749895
Bq        -0.2151352426    -2.1399034091    -0.6563770143
Bq        -0.1354117150    -2.0866721069    -0.8319064637
Bq        -0.2549970064    -2.1665190602    -0.5686122896
Bq        -0.0955499512    -2.0600564558    -0.9196711885
Bq        -0.2948587702    -2.1931347113    -0.4808475649
Bq        -0.0556881874    -2.0334408047    -1.0074359132
Bq        -0.3347205339    -2.2197503624    -0.3930828402
Bq        -0.0158264236    -2.0068251536    -1.0952006379
Bq        -0.3745822977    -2.2463660136    -0.3053181155
Bq         0.0240353401    -1.9802095025    -1.1829653626
Bq        -0.1752734788    -2.1132877580    -0.7441417390
Bq        -0.2261417160    -2.0435104264    -0.6321437639
Bq        -0.1464181884    -1.9902791242    -0.8076732133
Bq        -0.2660034797    -2.0701260775    -0.5443790391
Bq        -0.1065564246    -1.9636634731    -0.8954379380
Bq        -0.3058652435    -2.0967417286    -0.4566143144
Bq        -0.0666946608    -1.9370478220    -0.9832026627
Bq        -0.3457270073    -2.1233573797    -0.3688495897
Bq        -0.0268328970    -1.9104321709    -1.0709673874
Bq        -0.3855887711    -2.1499730308    -0.2810848650
Bq         0.0130288668    -1.8838165198    -1.1587321121
Bq        -0.1862799522    -2.0168947753    -0.7199084886
Bq        -0.2371481893    -1.9471174437    -0.6079105134
Bq        -0.1574246618    -1.8938861415    -0.7834399628
Bq        -0.2770099531    -1.9737330948    -0.5201457887
Bq        -0.1175628980    -1.8672704904    -0.8712046875
Bq        -0.3168717169    -2.0003487459    -0.4323810640
Bq        -0.0777011342    -1.8406548393    -0.9589694123
Bq        -0.3567334807    -2.0269643970    -0.3446163393
Bq        -0.0378393704    -1.8140391882    -1.0467341370
Bq        -0.3965952445    -2.0535800481    -0.2568516146
Bq         0.0020223934    -1.7874235371    -1.1344988617
Bq        -0.1972864255    -1.9205017926    -0.6956752381
Bq        -0.2481546627    -1.8507244610    -0.5836772629
Bq        -0.1684311351    -1.7974931588    -0.7592067124
Bq        -0.2880164265    -1.8773401121    -0.4959125382
Bq        -0.1285693713    -1.7708775077    -0.8469714371
Bq        -0.3278781903    -1.9039557632    -0.4081478135
Bq        -0.0887076075    -1.7442618566    -0.9347361618
Bq        -0.3677399541    -1.9305714143    -0.3203830888
Bq        -0.0488458438    -1.7176462055    -1.0225008865
Bq        -0.4076017178    -1.9571870654    -0.2326183641
Bq        -0.0089840800    -1.6910305543    -1.1102656112
Bq        -0.2082928989    -1.8241088099    -0.6714419877
Bq        -0.2591611361    -1.7543314783    -0.5594440125
Bq        -0.1794376085    -1.7011001761    -0.7349734619
Bq        -0.2990228999    -1.7809471294    -0.4716792878
Bq        -0.1395758447    -1.6744845250    -0.8227381866
Bq        -0.3388846636    -1.8075627805    -0.3839145631
Bq        -0.0997140809    -1.6478688739    -0.9105029113
Bq        -0.3787464274    -1.8341784316    -0.2961498383
Bq        -0.0598523171    -1.6212532227    -0.9982676360
Bq        -0.4186081912    -1.8607940827    -0.2083851136
Bq        -0.0199905533    -1.5946375716    -1.0860323608
Bq        -0.2192993723    -1.7277158272    -0.6472087372
Bq        -0.2701676094    -1.6579384956    -0.5352107620
Bq        -0.1904440819    -1.6047071934    -0.7107402115
Bq        -0.3100293732    -1.6845541467    -0.4474460373
Bq        -0.1505823181    -1.5780915422    -0.7985049362
Bq        -0.3498911370    -1.7111697978    -0.3596813126
Bq        -0.1107205543    -1.5514758911    -0.8862696609
Bq        -0.3897529008    -1.7377854489    -0.2719165879
Bq        -0.0708587905    -1.5248602400    -0.9740343856
Bq        -0.4296146646    -1.7644011000    -0.1841518632
Bq        -0.0309970267    -1.4982445889    -1.0617991103
Bq        -0.2303058457    -1.6313228445    -0.6229754867
Bq        -0.2811740828    -1.5615455129    -0.5109775116
Bq        -0.2014505552    -1.5083142106    -0.6865069610
Bq        -0.3210358466    -1.5881611640    -0.4232127869
Bq        -0.1615887915    -1.4816985595    -0.7742716857

1
2
3
4
5
6
7
8
9
10
11
12
13
14
15
16
17
18
19
20
21
22
23
24
25
26
27
28
29
30
31
32
33
34
35
36
37
38
39
40
41
42
43
44
45
46
47
48
49
50
51
52
53
54
55
56
57
58
59
60
61
62
63
64
65
66
67
68
69
70
71
72
73
74
75
76
77
78
79
80
81
82
83
84
85
86
87
88
89
90
91
92
93
94
95
96
97
98
99
100
101
102
103
104
105
106
107
108
109
110
111
112
113
114
115
116
117
118
119
120
121
122
123
124
125
126
127
128
129
130
131
132
133
134
135
136
137
138
139
140
141
142
143
144
145
146
147
148
149
150
151
152
153
154
155
156
157
158
159
160
161
162
163
164
165
166
167
168
169
170
171
172
173
174
175
176
177
178
179
180
181
182
183
184
185
186
187
188
189
190
191
192
193
194
195
196
197
198
199
200
201
202
203
204
205
206
207
208
209
210
211
212
213
214
215
216
217
218
219
220
221
222
223
224
225
226
227
228
229
230
231
232
233
234
235
236

