%nproc=8
%mem=1000MB
# rb3lyp/6-311+g** NMR geom=connectivity

Title

0 1
C    -4.0500558   -0.5771862    0.8136712
H    -5.0263804   -1.0082727    1.0024760
C    -3.9381552    0.6617804    0.2400876
H    -4.8252424    1.2338890   -0.0111295
C    -2.6768410    1.2433246    0.0057578
C    -1.4974121    0.5051527    0.2848253
C    -1.6508332   -0.7338728    0.9404026
H    -0.7713646   -1.2730967    1.2633753
C    -2.8898548   -1.2624035    1.1994307
H    -2.9683706   -2.2124563    1.7152676
C    -2.5773185    2.5963696   -0.4192930
H    -3.4870728    3.1412239   -0.6474055
C    -1.3741895    3.2147896   -0.4364030
H    -1.2997315    4.2742019   -0.6578144
C    -0.1719488    2.4994090   -0.1734588
C    -0.2043917    1.1018437    0.0192689
C     1.0513491    3.2042560   -0.0676222
H     1.0427344    4.2819499   -0.1896997
C     2.1942091    2.5487446    0.2579577
H     3.1168527    3.0912848    0.4334727
C     2.2216473    1.1336562    0.2934990
C     1.0486931    0.3945528    0.0302412
C     3.4483363    0.4614633    0.5573939
H     4.3095794    1.0606054    0.8334846
C     3.5427346   -0.8855926    0.4749463
H     4.4731467   -1.3939704    0.7038822
C     2.4490052   -1.6474447   -0.0196319
C     1.2150704   -1.0057258   -0.3013573
C     0.2531113   -1.7434440   -1.0216591
H    -0.6541356   -1.2535051   -1.3462847
C     0.4494193   -3.0628597   -1.3413779
H    -0.3083162   -3.5944309   -1.9054060
C     1.6251726   -3.7207967   -0.9552541
H     1.7670048   -4.7687404   -1.1927019
C     2.6109872   -3.0144177   -0.3183050
H     3.5525612   -3.4902813   -0.0646367
Bq        -2.0676137425     0.8454235585     1.1438636803
Bq        -2.0291939292     0.5999303848     0.1752269994
Bq        -2.0484038359     0.7226769717     0.6595453398
Bq        -2.0512728630     0.8441661210     0.7318789785
Bq        -2.0435889003     0.7950674862     0.5381516423
Bq        -2.0551148443     0.8687154384     0.8287426466
Bq        -2.0397469190     0.7705181689     0.4412879742
Bq        -2.0589568257     0.8932647557     0.9256063147
Bq        -2.0359049377     0.7459688515     0.3444243061
Bq        -2.0627988070     0.9178140731     1.0224699828
Bq        -2.0320629564     0.7214195341     0.2475606380
Bq        -2.0666407883     0.9423633905     1.1193336508
Bq        -2.0282209750     0.6968702167     0.1506969699
Bq        -2.0474308817     0.8196168036     0.6350153104
Bq        -2.0502999088     0.9411059529     0.7073489491
Bq        -2.0426159461     0.8920073182     0.5136216129
Bq        -2.0541418901     0.9656552703     0.8042126171
Bq        -2.0387739648     0.8674580008     0.4167579448
Bq        -2.0579838714     0.9902045877     0.9010762852
Bq        -2.0349319835     0.8429086834     0.3198942767
Bq        -2.0618258528     1.0147539051     0.9979399533
Bq        -2.0310900021     0.8183593660     0.2230306086
Bq        -2.0656678341     1.0393032224     1.0948036214
Bq        -2.0272480208     0.7938100487     0.1261669405
Bq        -2.0464579274     0.9165566355     0.6104852810
Bq        -2.0493269546     1.0380457849     0.6828189196
Bq        -2.0416429919     0.9889471501     0.4890915834
Bq        -2.0531689359     1.0625951022     0.7796825877
Bq        -2.0378010106     0.9643978327     0.3922279154
Bq        -2.0570109172     1.0871444196     0.8765462558
Bq        -2.0339590292     0.9398485154     0.2953642473
Bq        -2.0608528985     1.1116937370     0.9734099239
Bq        -2.0301170479     0.9152991980     0.1985005792
Bq        -2.0646948799     1.1362430544     1.0702735920
Bq        -2.0262750666     0.8907498806     0.1016369111
Bq        -2.0454849732     1.0134964675     0.5859552515
Bq        -2.0483540003     1.1349856168     0.6582888902
Bq        -2.0406700377     1.0858869821     0.4645615540
Bq        -2.0521959817     1.1595349342     0.7551525583
Bq        -2.0368280563     1.0613376647     0.3676978859
Bq        -2.0560379630     1.1840842516     0.8520162264
Bq        -2.0329860750     1.0367883473     0.2708342178
Bq        -2.0598799443     1.2086335689     0.9488798945
Bq        -2.0291440937     1.0122390299     0.1739705497
Bq        -2.0637219256     1.2331828863     1.0457435626
Bq        -2.0253021124     0.9876897125     0.0771068817
Bq        -2.0445120190     1.1104362994     0.5614252221
Bq        -2.0473810461     1.2319254487     0.6337588608
Bq        -2.0396970834     1.1828268140     0.4400315246
Bq        -2.0512230274     1.2564747661     0.7306225289
Bq        -2.0358551021     1.1582774966     0.3431678565
Bq        -2.0550650088     1.2810240835     0.8274861970
Bq        -2.0320131208     1.1337281792     0.2463041884
Bq        -2.0589069901     1.3055734009     0.9243498650
Bq        -2.0281711395     1.1091788619     0.1494405203
Bq        -2.0627489714     1.3301227182     1.0212135331
Bq        -2.0243291581     1.0846295445     0.0525768522
Bq        -2.0435390648     1.2073761314     0.5368951927
Bq        -2.0464080919     1.3288652807     0.6092288313
Bq        -2.0387241292     1.2797666459     0.4155014952
Bq        -2.0502500732     1.3534145981     0.7060924994
Bq        -2.0348821479     1.2552173286     0.3186378271
Bq        -2.0540920545     1.3779639154     0.8029561675
Bq        -2.0310401666     1.2306680112     0.2217741590
Bq        -2.0579340359     1.4025132328     0.8998198356
Bq        -2.0271981852     1.2061186938     0.1249104909
Bq        -2.0617760172     1.4270625502     0.9966835037
Bq        -2.0233562039     1.1815693764     0.0280468228
Bq        -2.0425661105     1.3043159633     0.5123651633
Bq        -2.0454351377     1.4258051126     0.5846988019
Bq        -2.0377511750     1.3767064779     0.3909714657
Bq        -2.0492771190     1.4503544300     0.6815624700
Bq        -2.0339091937     1.3521571605     0.2941077976
Bq        -2.0531191003     1.4749037474     0.7784261381
Bq        -2.0300672123     1.3276078431     0.1972441296
Bq        -2.0569610816     1.4994530647     0.8752898062
Bq        -2.0262252310     1.3030585257     0.1003804615
Bq        -2.0608030630     1.5240023821     0.9721534743
Bq        -2.0223832497     1.2785092084     0.0035167934
Bq        -2.0415931563     1.4012557952     0.4878351338
Bq        -2.0444621834     1.5227449446     0.5601687725
Bq        -2.0367782208     1.4736463098     0.3664414363
Bq        -2.0483041648     1.5472942619     0.6570324406
Bq        -2.0329362394     1.4490969924     0.2695777682
Bq        -2.0521461461     1.5718435793     0.7538961087
Bq        -2.0290942581     1.4245476751     0.1727141001
Bq        -2.0559881274     1.5963928967     0.8507597768
Bq        -2.0252522768     1.3999983577     0.0758504320
Bq        -2.0598301087     1.6209422141     0.9476234449
Bq        -2.0214102955     1.3754490403    -0.0210132360
Bq        -2.0406202021     1.4981956272     0.4633051044
Bq        -2.0434892292     1.6196847765     0.5356387431
Bq        -2.0358052665     1.5705861417     0.3419114069
Bq        -2.0473312105     1.6442340939     0.6325024112
Bq        -2.0319632852     1.5460368244     0.2450477388
Bq        -2.0511731919     1.6687834113     0.7293660792
Bq        -2.0281213039     1.5214875070     0.1481840707
Bq        -2.0550151732     1.6933327286     0.8262297473
Bq        -2.0242793226     1.4969381896     0.0513204026
Bq        -2.0588571545     1.7178820460     0.9230934154
Bq        -2.0204373412     1.4723888722    -0.0455432655
Bq        -2.0396472479     1.5951354591     0.4387750750
Bq        -2.0425162750     1.7166246084     0.5111087136
Bq        -2.0348323123     1.6675259737     0.3173813775
Bq        -2.0463582563     1.7411739258     0.6079723817
Bq        -2.0309903310     1.6429766563     0.2205177094
Bq        -2.0502002376     1.7657232432     0.7048360498
Bq        -2.0271483497     1.6184273389     0.1236540413
Bq        -2.0540422190     1.7902725606     0.8016997179
Bq        -2.0233063683     1.5938780216     0.0267903732
Bq        -2.0578842003     1.8148218779     0.8985633860
Bq        -2.0194643870     1.5693287042    -0.0700732949
Bq        -2.0386742936     1.6920752911     0.4142450455
Bq        -2.0415433208     1.8135644404     0.4865786842
Bq        -2.0338593581     1.7644658056     0.2928513480
Bq        -2.0453853021     1.8381137578     0.5834423523
Bq        -2.0300173768     1.7399164882     0.1959876799
Bq        -2.0492272834     1.8626630751     0.6803060204
Bq        -2.0261753954     1.7153671709     0.0991240118
Bq        -2.0530692647     1.8872123925     0.7771696885
Bq        -2.0223334141     1.6908178535     0.0022603438
Bq        -2.0569112461     1.9117617099     0.8740333566
Bq        -2.0184914328     1.6662685361    -0.0946033243
Bq        -2.0377013394     1.7890151230     0.3897150161
Bq        -2.0405703665     1.9105042723     0.4620486548
Bq        -2.0328864039     1.8614056376     0.2683213186
Bq        -2.0444123479     1.9350535897     0.5589123229
Bq        -2.0290444225     1.8368563202     0.1714576505
Bq        -2.0482543292     1.9596029071     0.6557759910
Bq        -2.0252024412     1.8123070028     0.0745939824
Bq        -2.0520963105     1.9841522244     0.7526396591
Bq        -2.0213604599     1.7877576854    -0.0222696857
Bq        -2.0559382918     2.0087015418     0.8495033271
Bq        -2.0175184786     1.7632083681    -0.1191333538
Bq        -2.0367283852     1.8859549549     0.3651849867
Bq        -2.0395974123     2.0074441043     0.4375186254
Bq        -2.0319134496     1.9583454695     0.2437912892
Bq        -2.0434393936     2.0319934216     0.5343822934
Bq        -2.0280714683     1.9337961521     0.1469276211
Bq        -2.0472813750     2.0565427390     0.6312459615
Bq        -2.0242294870     1.9092468348     0.0500639530
Bq        -2.0511233563     2.0810920564     0.7281096296
Bq        -2.0203875057     1.8846975174    -0.0467997151
Bq        -2.0549653376     2.1056413738     0.8249732977
Bq        -2.0165455243     1.8601482000    -0.1436633832
Bq        -2.0357554310     1.9828947869     0.3406549573
Bq        -2.0386244581     2.1043839362     0.4129885959
Bq        -2.0309404954     2.0552853014     0.2192612597
Bq        -2.0424664394     2.1289332536     0.5098522640
Bq        -2.0270985141     2.0307359841     0.1223975917
Bq        -2.0463084207     2.1534825709     0.6067159321
Bq        -2.0232565328     2.0061866667     0.0255339236
Bq        -2.0501504021     2.1780318883     0.7035796002
Bq        -2.0194145514     1.9816373493    -0.0713297445
Bq        -2.0539923834     2.2025812057     0.8004432683
Bq        -2.0155725701     1.9570880319    -0.1681934126
Bq        -2.0347824768     2.0798346188     0.3161249278
Bq        -2.0376515039     2.2013237681     0.3884585665
Bq        -2.0299675412     2.1522251334     0.1947312303
Bq        -2.0414934852     2.2258730855     0.4853222346
Bq        -2.0261255599     2.1276758160     0.0978675622
Bq        -2.0453354665     2.2504224029     0.5821859027
Bq        -2.0222835785     2.1031264986     0.0010038941
Bq        -2.0491774478     2.2749717203     0.6790495708
Bq        -2.0184415972     2.0785771813    -0.0958597739
Bq        -2.0530194292     2.2995210376     0.7759132389
Bq        -2.0145996159     2.0540278639    -0.1927234420
Bq        -2.0338095225     2.1767744508     0.2915948984
Bq        -2.0366785496     2.2982636001     0.3639285371
Bq        -2.0289945870     2.2491649653     0.1702012009
Bq        -2.0405205310     2.3228129174     0.4607922052
Bq        -2.0251526056     2.2246156479     0.0733375328
Bq        -2.0443625123     2.3473622348     0.5576558733
Bq        -2.0213106243     2.2000663306    -0.0235261353
Bq        -2.0482044936     2.3719115522     0.6545195413
Bq        -2.0174686430     2.1755170132    -0.1203898034
Bq        -2.0520464749     2.3964608696     0.7513832094
Bq        -2.0136266617     2.1509676958    -0.2172534715
Bq        -2.0328365683     2.2737142827     0.2670648690
Bq        -2.0357055954     2.3952034320     0.3393985076
Bq        -2.0280216327     2.3461047973     0.1456711715
Bq        -2.0395475767     2.4197527494     0.4362621757
Bq        -2.0241796514     2.3215554799     0.0488075034
Bq        -2.0433895581     2.4443020668     0.5331258438
Bq        -2.0203376701     2.2970061625    -0.0480561647
Bq        -2.0472315394     2.4688513841     0.6299895119
Bq        -2.0164956888     2.2724568451    -0.1449198328
Bq        -2.0510735207     2.4934007015     0.7268531800
Bq        -2.0126537074     2.2479075278    -0.2417835009
Bq        -2.0318636141     2.3706541146     0.2425348396
Bq        -2.0347326412     2.4921432640     0.3148684782
Bq        -2.0270486785     2.4430446292     0.1211411420
Bq        -2.0385746225     2.5166925813     0.4117321463
Bq        -2.0232066972     2.4184953118     0.0242774739
Bq        -2.0424166038     2.5412418987     0.5085958144
Bq        -2.0193647159     2.3939459944    -0.0725861941
Bq        -2.0462585852     2.5657912161     0.6054594825
Bq        -2.0155227345     2.3693966771    -0.1694498622
Bq        -2.0501005665     2.5903405335     0.7023231506
Bq        -2.0116807532     2.3448473597    -0.2663135303

1
2
3
4
5
6
7
8
9
10
11
12
13
14
15
16
17
18
19
20
21
22
23
24
25
26
27
28
29
30
31
32
33
34
35
36
37
38
39
40
41
42
43
44
45
46
47
48
49
50
51
52
53
54
55
56
57
58
59
60
61
62
63
64
65
66
67
68
69
70
71
72
73
74
75
76
77
78
79
80
81
82
83
84
85
86
87
88
89
90
91
92
93
94
95
96
97
98
99
100
101
102
103
104
105
106
107
108
109
110
111
112
113
114
115
116
117
118
119
120
121
122
123
124
125
126
127
128
129
130
131
132
133
134
135
136
137
138
139
140
141
142
143
144
145
146
147
148
149
150
151
152
153
154
155
156
157
158
159
160
161
162
163
164
165
166
167
168
169
170
171
172
173
174
175
176
177
178
179
180
181
182
183
184
185
186
187
188
189
190
191
192
193
194
195
196
197
198
199
200
201
202
203
204
205
206
207
208
209
210
211
212
213
214
215
216
217
218
219
220
221
222
223
224
225
226
227
228
229
230
231
232
233
234
235
236

