%nproc=8
%mem=1000MB
# rb3lyp/6-311+g** NMR geom=connectivity

Title

0 1
C    -4.0500558   -0.5771862    0.8136712
H    -5.0263804   -1.0082727    1.0024760
C    -3.9381552    0.6617804    0.2400876
H    -4.8252424    1.2338890   -0.0111295
C    -2.6768410    1.2433246    0.0057578
C    -1.4974121    0.5051527    0.2848253
C    -1.6508332   -0.7338728    0.9404026
H    -0.7713646   -1.2730967    1.2633753
C    -2.8898548   -1.2624035    1.1994307
H    -2.9683706   -2.2124563    1.7152676
C    -2.5773185    2.5963696   -0.4192930
H    -3.4870728    3.1412239   -0.6474055
C    -1.3741895    3.2147896   -0.4364030
H    -1.2997315    4.2742019   -0.6578144
C    -0.1719488    2.4994090   -0.1734588
C    -0.2043917    1.1018437    0.0192689
C     1.0513491    3.2042560   -0.0676222
H     1.0427344    4.2819499   -0.1896997
C     2.1942091    2.5487446    0.2579577
H     3.1168527    3.0912848    0.4334727
C     2.2216473    1.1336562    0.2934990
C     1.0486931    0.3945528    0.0302412
C     3.4483363    0.4614633    0.5573939
H     4.3095794    1.0606054    0.8334846
C     3.5427346   -0.8855926    0.4749463
H     4.4731467   -1.3939704    0.7038822
C     2.4490052   -1.6474447   -0.0196319
C     1.2150704   -1.0057258   -0.3013573
C     0.2531113   -1.7434440   -1.0216591
H    -0.6541356   -1.2535051   -1.3462847
C     0.4494193   -3.0628597   -1.3413779
H    -0.3083162   -3.5944309   -1.9054060
C     1.6251726   -3.7207967   -0.9552541
H     1.7670048   -4.7687404   -1.1927019
C     2.6109872   -3.0144177   -0.3183050
H     3.5525612   -3.4902813   -0.0646367
Bq        -1.1239636463     2.0061866667     0.0612032983
Bq        -1.1508575156     2.1780318883     0.7392489750
Bq        -1.1201216649     1.9816373493    -0.0356603697
Bq        -1.1546994969     2.2025812057     0.8361126431
Bq        -1.1162796836     1.9570880319    -0.1325240378
Bq        -1.1354895903     2.0798346188     0.3517943026
Bq        -1.1383586174     2.2013237681     0.4241279413
Bq        -1.1306746547     2.1522251334     0.2304006051
Bq        -1.1422005987     2.2258730855     0.5209916094
Bq        -1.1268326734     2.1276758160     0.1335369370
Bq        -1.1460425800     2.2504224029     0.6178552775
Bq        -1.1229906920     2.1031264986     0.0366732689
Bq        -1.1498845613     2.2749717203     0.7147189455
Bq        -1.1191487107     2.0785771813    -0.0601903992
Bq        -1.1537265427     2.2995210376     0.8115826136
Bq        -1.1153067294     2.0540278639    -0.1570540673
Bq        -1.1345166360     2.1767744508     0.3272642732
Bq        -1.1373856631     2.2982636001     0.3995979119
Bq        -1.1297017005     2.2491649653     0.2058705757
Bq        -1.1412276445     2.3228129174     0.4964615799
Bq        -1.1258597191     2.2246156479     0.1090069076
Bq        -1.1450696258     2.3473622348     0.5933252480
Bq        -1.1220177378     2.2000663306     0.0121432395
Bq        -1.1489116071     2.3719115522     0.6901889161
Bq        -1.1181757565     2.1755170132    -0.0847204286
Bq        -1.1527535885     2.3964608696     0.7870525842
Bq        -1.1143337752     2.1509676958    -0.1815840967
Bq        -1.1335436818     2.2737142827     0.3027342438
Bq        -1.1364127089     2.3952034320     0.3750678824
Bq        -1.1287287463     2.3461047973     0.1813405462
Bq        -1.1402546902     2.4197527494     0.4719315505
Bq        -1.1248867649     2.3215554799     0.0844768782
Bq        -1.1440966716     2.4443020668     0.5687952186
Bq        -1.1210447836     2.2970061625    -0.0123867899
Bq        -1.1479386529     2.4688513841     0.6656588867
Bq        -1.1172028023     2.2724568451    -0.1092504580
Bq        -1.1517806342     2.4934007015     0.7625225548
Bq        -1.1133608209     2.2479075278    -0.2061141261
Bq        -1.1325707276     2.3706541146     0.2782042143
Bq        -1.1354397547     2.4921432640     0.3505378530
Bq        -1.1277557920     2.4430446292     0.1568105168
Bq        -1.1392817360     2.5166925813     0.4474015211
Bq        -1.1239138107     2.4184953118     0.0599468487
Bq        -1.1431237173     2.5412418987     0.5442651892
Bq        -1.1200718294     2.3939459944    -0.0369168194
Bq        -1.1469656987     2.5657912161     0.6411288573
Bq        -1.1162298480     2.3693966771    -0.1337804875
Bq        -1.1508076800     2.5903405335     0.7379925254
Bq        -1.1123878667     2.3448473597    -0.2306441555
Bq        -1.1315977734     2.4675939466     0.2536741849
Bq        -1.1344668005     2.5890830959     0.3260078236
Bq        -1.1267828378     2.5399844611     0.1322804874
Bq        -1.1383087818     2.6136324133     0.4228714917
Bq        -1.1229408565     2.5154351438     0.0354168193
Bq        -1.1421507631     2.6381817306     0.5197351597
Bq        -1.1190988751     2.4908858264    -0.0614468488
Bq        -1.1459927445     2.6627310480     0.6165988278
Bq        -1.1152568938     2.4663365090    -0.1583105169
Bq        -1.1498347258     2.6872803654     0.7134624959
Bq        -1.1114149125     2.4417871916    -0.2551741850
Bq        -1.1306248191     2.5645337785     0.2291441555
Bq        -1.1334938462     2.6860229278     0.3014777941
Bq        -1.1258098836     2.6369242931     0.1077504580
Bq        -1.1373358276     2.7105722452     0.3983414622
Bq        -1.1219679023     2.6123749757     0.0108867899
Bq        -1.1411778089     2.7351215626     0.4952051303
Bq        -1.1181259209     2.5878256583    -0.0859768782
Bq        -1.1450197902     2.7596708800     0.5920687984
Bq        -1.1142839396     2.5632763409    -0.1828405463
Bq        -1.1488617716     2.7842201973     0.6889324665
Bq        -1.1104419583     2.5387270236    -0.2797042144
Bq        -1.1296518649     2.6614736105     0.2046141261
Bq        -1.1325208920     2.7829627598     0.2769477647
Bq        -1.1248369294     2.7338641250     0.0832204285
Bq        -1.1363628733     2.8075120771     0.3738114328
Bq        -1.1209949480     2.7093148076    -0.0136432396
Bq        -1.1402048547     2.8320613945     0.4706751009
Bq        -1.1171529667     2.6847654903    -0.1105069076
Bq        -1.1440468360     2.8566107119     0.5675387690
Bq        -1.1133109854     2.6602161729    -0.2073705757
Bq        -1.1478888173     2.8811600293     0.6644024371
Bq        -1.1094690040     2.6356668555    -0.3042342438
Bq        -1.1286789107     2.7584134424     0.1800840966
Bq        -1.1315479378     2.8799025917     0.2524177353
Bq        -1.1238639751     2.8308039570     0.0586903991
Bq        -1.1353899191     2.9044519091     0.3492814034
Bq        -1.1200219938     2.8062546396    -0.0381732690
Bq        -1.1392319004     2.9290012265     0.4461450715
Bq        -1.1161800125     2.7817053222    -0.1350369371
Bq        -1.1430738818     2.9535505438     0.5430087396
Bq        -1.1123380311     2.7571560048    -0.2319006052
Bq        -1.1469158631     2.9780998612     0.6398724076
Bq        -1.1084960498     2.7326066875    -0.3287642733
Bq        -1.1277059565     2.8553532743     0.1555540672
Bq        -1.1305749836     2.9768424236     0.2278877059
Bq        -1.1228910209     2.9277437889     0.0341603697
Bq        -1.1344169649     3.0013917410     0.3247513740
Bq        -1.1190490396     2.9031944715    -0.0627032984
Bq        -1.1382589462     3.0259410584     0.4216150420
Bq        -1.1152070582     2.8786451541    -0.1595669665
Bq        -1.1421009276     3.0504903758     0.5184787101
Bq        -1.1113650769     2.8540958368    -0.2564306346
Bq        -1.1459429089     3.0750396931     0.6153423782
Bq        -1.1075230956     2.8295465194    -0.3532943027
Bq        -1.1267330022     2.9522931063     0.1310240378
Bq        -1.1296020293     3.0737822556     0.2033576764
Bq        -1.1219180667     3.0246836208     0.0096303403
Bq        -1.1334440107     3.0983315730     0.3002213445
Bq        -1.1180760854     3.0001343035    -0.0872333278
Bq        -1.1372859920     3.1228808903     0.3970850126
Bq        -1.1142341040     2.9755849861    -0.1840969959
Bq        -1.1411279733     3.1474302077     0.4939486807
Bq        -1.1103921227     2.9510356687    -0.2809606640
Bq        -1.1449699547     3.1719795251     0.5908123488
Bq        -1.1065501414     2.9264863513    -0.3778243321
Bq        -1.1257600480     3.0492329382     0.1064940083
Bq        -1.1286290751     3.1707220875     0.1788276470
Bq        -1.1209451125     3.1216234528    -0.0148996892
Bq        -1.1324710564     3.1952714049     0.2756913151
Bq        -1.1171031311     3.0970741354    -0.1117633573
Bq        -1.1363130378     3.2198207223     0.3725549832
Bq        -1.1132611498     3.0725248180    -0.2086270254
Bq        -1.1401550191     3.2443700397     0.4694186513
Bq        -1.1094191685     3.0479755006    -0.3054906934
Bq        -1.1439970004     3.2689193570     0.5662823194
Bq        -1.1055771871     3.0234261833    -0.4023543615
Bq        -1.1247870938     3.1461727701     0.0819639789
Bq        -1.1276561209     3.2676619195     0.1542976176
Bq        -1.1199721582     3.2185632847    -0.0394297186
Bq        -1.1314981022     3.2922112368     0.2511612857
Bq        -1.1161301769     3.1940139673    -0.1362933867
Bq        -1.1353400835     3.3167605542     0.3480249538
Bq        -1.1122881956     3.1694646500    -0.2331570548
Bq        -1.1391820649     3.3413098716     0.4448886218
Bq        -1.1084462142     3.1449153326    -0.3300207229
Bq        -1.1430240462     3.3658591890     0.5417522899
Bq        -1.1046042329     3.1203660152    -0.4268843910
Bq        -1.1238141396     3.2431126021     0.0574339495
Bq        -1.1266831667     3.3646017514     0.1297675882
Bq        -1.1189992040     3.3155031167    -0.0639597480
Bq        -1.1305251480     3.3891510688     0.2266312562
Bq        -1.1151572227     3.2909537993    -0.1608234161
Bq        -1.1343671293     3.4137003862     0.3234949243
Bq        -1.1113152414     3.2664044819    -0.2576870842
Bq        -1.1382091107     3.4382497035     0.4203585924
Bq        -1.1074732600     3.2418551645    -0.3545507523
Bq        -1.1420510920     3.4627990209     0.5172222605
Bq        -1.1036312787     3.2173058471    -0.4514144204
Bq        -1.1228411853     3.3400524340     0.0329039201
Bq        -1.1257102124     3.4615415833     0.1052375587
Bq        -1.1180262498     3.4124429486    -0.0884897775
Bq        -1.1295521938     3.4860909007     0.2021012268
Bq        -1.1141842685     3.3878936312    -0.1853534455
Bq        -1.1333941751     3.5106402181     0.2989648949
Bq        -1.1103422871     3.3633443138    -0.2822171136
Bq        -1.1372361564     3.5351895355     0.3958285630
Bq        -1.1065003058     3.3387949965    -0.3790807817
Bq        -1.1410781378     3.5597388528     0.4926922311
Bq        -1.1026583245     3.3142456791    -0.4759444498
Bq        -1.1218682311     3.4369922660     0.0083738906
Bq        -1.1247372582     3.5584814153     0.0807075293
Bq        -1.1170532956     3.5093827805    -0.1130198069
Bq        -1.1285792395     3.5830307327     0.1775711974
Bq        -1.1132113142     3.4848334632    -0.2098834750
Bq        -1.1324212209     3.6075800500     0.2744348655
Bq        -1.1093693329     3.4602841458    -0.3067471431
Bq        -1.1362632022     3.6321293674     0.3712985336
Bq        -1.1055273516     3.4357348284    -0.4036108112
Bq        -1.1401051835     3.6566786848     0.4681622017
Bq        -1.1016853702     3.4111855110    -0.5004744792
Bq        -1.1208952769     3.5339320979    -0.0161561388
Bq        -1.1237643040     3.6554212472     0.0561774999
Bq        -1.1160803413     3.6063226125    -0.1375498363
Bq        -1.1276062853     3.6799705646     0.1530411680
Bq        -1.1122383600     3.5817732951    -0.2344135044
Bq        -1.1314482667     3.7045198820     0.2499048361
Bq        -1.1083963787     3.5572239777    -0.3312771725
Bq        -1.1352902480     3.7290691993     0.3467685041
Bq        -1.1045543973     3.5326746603    -0.4281408406
Bq        -1.1391322293     3.7536185167     0.4436321722
Bq        -1.1007124160     3.5081253430    -0.5250045087
Bq        -1.1199223227     3.6308719298    -0.0406861682
Bq        -1.1227913498     3.7523610792     0.0316474704
Bq        -1.1151073871     3.7032624444    -0.1620798657
Bq        -1.1266333311     3.7769103965     0.1285111385
Bq        -1.1112654058     3.6787131270    -0.2589435338
Bq        -1.1304753124     3.8014597139     0.2253748066
Bq        -1.1074234245     3.6541638097    -0.3558072019
Bq        -1.1343172938     3.8260090313     0.3222384747
Bq        -1.1035814431     3.6296144923    -0.4526708700
Bq        -1.1381592751     3.8505583487     0.4191021428
Bq        -1.0997394618     3.6050651749    -0.5495345381
Bq        -1.1189493684     3.7278117618    -0.0652161976
Bq        -1.1218183955     3.8493009111     0.0071174410
Bq        -1.1141344329     3.8002022763    -0.1866098952
Bq        -1.1256603769     3.8738502285     0.1039811091
Bq        -1.1102924516     3.7756529590    -0.2834735633
Bq        -1.1295023582     3.8983995458     0.2008447772
Bq        -1.1064504702     3.7511036416    -0.3803372313
Bq        -1.1333443395     3.9229488632     0.2977084453

1
2
3
4
5
6
7
8
9
10
11
12
13
14
15
16
17
18
19
20
21
22
23
24
25
26
27
28
29
30
31
32
33
34
35
36
37
38
39
40
41
42
43
44
45
46
47
48
49
50
51
52
53
54
55
56
57
58
59
60
61
62
63
64
65
66
67
68
69
70
71
72
73
74
75
76
77
78
79
80
81
82
83
84
85
86
87
88
89
90
91
92
93
94
95
96
97
98
99
100
101
102
103
104
105
106
107
108
109
110
111
112
113
114
115
116
117
118
119
120
121
122
123
124
125
126
127
128
129
130
131
132
133
134
135
136
137
138
139
140
141
142
143
144
145
146
147
148
149
150
151
152
153
154
155
156
157
158
159
160
161
162
163
164
165
166
167
168
169
170
171
172
173
174
175
176
177
178
179
180
181
182
183
184
185
186
187
188
189
190
191
192
193
194
195
196
197
198
199
200
201
202
203
204
205
206
207
208
209
210
211
212
213
214
215
216
217
218
219
220
221
222
223
224
225
226
227
228
229
230
231
232
233
234
235
236

