%nproc=8
%mem=1000MB
# rb3lyp/6-311+g** NMR geom=connectivity

Title

0 1
C    -4.0500558   -0.5771862    0.8136712
H    -5.0263804   -1.0082727    1.0024760
C    -3.9381552    0.6617804    0.2400876
H    -4.8252424    1.2338890   -0.0111295
C    -2.6768410    1.2433246    0.0057578
C    -1.4974121    0.5051527    0.2848253
C    -1.6508332   -0.7338728    0.9404026
H    -0.7713646   -1.2730967    1.2633753
C    -2.8898548   -1.2624035    1.1994307
H    -2.9683706   -2.2124563    1.7152676
C    -2.5773185    2.5963696   -0.4192930
H    -3.4870728    3.1412239   -0.6474055
C    -1.3741895    3.2147896   -0.4364030
H    -1.2997315    4.2742019   -0.6578144
C    -0.1719488    2.4994090   -0.1734588
C    -0.2043917    1.1018437    0.0192689
C     1.0513491    3.2042560   -0.0676222
H     1.0427344    4.2819499   -0.1896997
C     2.1942091    2.5487446    0.2579577
H     3.1168527    3.0912848    0.4334727
C     2.2216473    1.1336562    0.2934990
C     1.0486931    0.3945528    0.0302412
C     3.4483363    0.4614633    0.5573939
H     4.3095794    1.0606054    0.8334846
C     3.5427346   -0.8855926    0.4749463
H     4.4731467   -1.3939704    0.7038822
C     2.4490052   -1.6474447   -0.0196319
C     1.2150704   -1.0057258   -0.3013573
C     0.2531113   -1.7434440   -1.0216591
H    -0.6541356   -1.2535051   -1.3462847
C     0.4494193   -3.0628597   -1.3413779
H    -0.3083162   -3.5944309   -1.9054060
C     1.6251726   -3.7207967   -0.9552541
H     1.7670048   -4.7687404   -1.1927019
C     2.6109872   -3.0144177   -0.3183050
H     3.5525612   -3.4902813   -0.0646367
Bq         0.0535031204    -4.8223608957    -1.0060272149
Bq         0.3723972307    -4.6094356868    -1.7081450126
Bq         0.0136413566    -4.8489765468    -0.9182624902
Bq         0.4122589945    -4.5828200357    -1.7959097373
Bq         0.2129501756    -4.7158982912    -1.3570861138
Bq         0.1620819384    -4.6461209596    -1.2450881386
Bq         0.2418054660    -4.5928896574    -1.4206175880
Bq         0.1222201746    -4.6727366108    -1.1573234139
Bq         0.2816672298    -4.5662740063    -1.5083823127
Bq         0.0823584108    -4.6993522619    -1.0695586892
Bq         0.3215289936    -4.5396583552    -1.5961470374
Bq         0.0424966470    -4.7259679130    -0.9817939645
Bq         0.3613907573    -4.5130427041    -1.6839117622
Bq         0.0026348833    -4.7525835641    -0.8940292397
Bq         0.4012525211    -4.4864270530    -1.7716764869
Bq         0.2019437022    -4.6195053085    -1.3328528633
Bq         0.1510754650    -4.5497279769    -1.2208548881
Bq         0.2307989926    -4.4964966747    -1.3963843376
Bq         0.1112137012    -4.5763436280    -1.1330901634
Bq         0.2706607564    -4.4698810236    -1.4841490623
Bq         0.0713519375    -4.6029592791    -1.0453254387
Bq         0.3105225202    -4.4432653725    -1.5719137870
Bq         0.0314901737    -4.6295749303    -0.9575607140
Bq         0.3503842840    -4.4166497214    -1.6596785117
Bq        -0.0083715901    -4.6561905814    -0.8697959893
Bq         0.3902460478    -4.3900340703    -1.7474432364
Bq         0.1909372288    -4.5231123258    -1.3086196129
Bq         0.1400689917    -4.4533349942    -1.1966216377
Bq         0.2197925192    -4.4001036920    -1.3721510871
Bq         0.1002072279    -4.4799506453    -1.1088569130
Bq         0.2596542830    -4.3734880409    -1.4599158118
Bq         0.0603454641    -4.5065662964    -1.0210921883
Bq         0.2995160468    -4.3468723898    -1.5476805365
Bq         0.0204837003    -4.5331819475    -0.9333274635
Bq         0.3393778106    -4.3202567387    -1.6354452612
Bq        -0.0193780635    -4.5597975986    -0.8455627388
Bq         0.3792395744    -4.2936410876    -1.7232099860
Bq         0.1799307554    -4.4267193431    -1.2843863624
Bq         0.1290625183    -4.3569420115    -1.1723883872
Bq         0.2087860459    -4.3037107093    -1.3479178366
Bq         0.0892007545    -4.3835576626    -1.0846236625
Bq         0.2486478097    -4.2770950582    -1.4356825614
Bq         0.0493389907    -4.4101733137    -0.9968589378
Bq         0.2885095734    -4.2504794071    -1.5234472861
Bq         0.0094772269    -4.4367889648    -0.9090942131
Bq         0.3283713372    -4.2238637560    -1.6112120108
Bq        -0.0303845369    -4.4634046159    -0.8213294884
Bq         0.3682331010    -4.1972481049    -1.6989767355
Bq         0.1689242821    -4.3303263604    -1.2601531119
Bq         0.1180560449    -4.2605490288    -1.1481551368
Bq         0.1977795725    -4.2073177266    -1.3236845862
Bq         0.0781942811    -4.2871646799    -1.0603904121
Bq         0.2376413363    -4.1807020755    -1.4114493109
Bq         0.0383325173    -4.3137803310    -0.9726256873
Bq         0.2775031001    -4.1540864244    -1.4992140356
Bq        -0.0015292464    -4.3403959821    -0.8848609626
Bq         0.3173648639    -4.1274707733    -1.5869787603
Bq        -0.0413910102    -4.3670116332    -0.7970962379
Bq         0.3572266276    -4.1008551222    -1.6747434850
Bq         0.1579178087    -4.2339333777    -1.2359198615
Bq         0.1070495715    -4.1641560461    -1.1239218863
Bq         0.1867730991    -4.1109247439    -1.2994513357
Bq         0.0671878078    -4.1907716972    -1.0361571616
Bq         0.2266348629    -4.0843090928    -1.3872160604
Bq         0.0273260440    -4.2173873483    -0.9483924369
Bq         0.2664966267    -4.0576934417    -1.4749807852
Bq        -0.0125357198    -4.2440029994    -0.8606277122
Bq         0.3063583905    -4.0310777905    -1.5627455099
Bq        -0.0523974836    -4.2706186505    -0.7728629875
Bq         0.3462201543    -4.0044621394    -1.6505102346
Bq         0.1469113353    -4.1375403950    -1.2116866110
Bq         0.0960430982    -4.0677630634    -1.0996886358
Bq         0.1757666257    -4.0145317612    -1.2752180853
Bq         0.0561813344    -4.0943787145    -1.0119239111
Bq         0.2156283895    -3.9879161100    -1.3629828100
Bq         0.0163195706    -4.1209943656    -0.9241591864
Bq         0.2554901533    -3.9613004589    -1.4507475347
Bq        -0.0235421932    -4.1476100167    -0.8363944617
Bq         0.2953519171    -3.9346848078    -1.5385122594
Bq        -0.0634039570    -4.1742256678    -0.7486297370
Bq         0.3352136809    -3.9080691567    -1.6262769841
Bq         0.1359048620    -4.0411474123    -1.1874533606
Bq         0.0850366248    -3.9713700807    -1.0754553854
Bq         0.1647601524    -3.9181387784    -1.2509848348
Bq         0.0451748610    -3.9979857318    -0.9876906607
Bq         0.2046219162    -3.8915231273    -1.3387495595
Bq         0.0053130972    -4.0246013829    -0.8999259360
Bq         0.2444836800    -3.8649074762    -1.4265142842
Bq        -0.0345486666    -4.0512170340    -0.8121612113
Bq         0.2843454437    -3.8382918251    -1.5142790090
Bq        -0.0744104303    -4.0778326851    -0.7243964865
Bq         0.3242072075    -3.8116761740    -1.6020437337
Bq         0.1248983886    -3.9447544296    -1.1632201101
Bq         0.0740301514    -3.8749770979    -1.0512221349
Bq         0.1537536790    -3.8217457957    -1.2267515844
Bq         0.0341683876    -3.9015927491    -0.9634574102
Bq         0.1936154428    -3.7951301446    -1.3145163091
Bq        -0.0056933761    -3.9282084002    -0.8756926855
Bq         0.2334772066    -3.7685144935    -1.4022810338
Bq        -0.0455551399    -3.9548240513    -0.7879279608
Bq         0.2733389704    -3.7418988424    -1.4900457585
Bq        -0.0854169037    -3.9814397024    -0.7001632361
Bq         0.3132007342    -3.7152831913    -1.5778104832
Bq         0.1138919152    -3.8483614468    -1.1389868596
Bq         0.0630236781    -3.7785841152    -1.0269888845
Bq         0.1427472056    -3.7253528130    -1.2025183339
Bq         0.0231619143    -3.8051997663    -0.9392241598
Bq         0.1826089694    -3.6987371619    -1.2902830586
Bq        -0.0166998495    -3.8318154174    -0.8514594350
Bq         0.2224707332    -3.6721215108    -1.3780477833
Bq        -0.0565616133    -3.8584310686    -0.7636947103
Bq         0.2623324970    -3.6455058597    -1.4658125080
Bq        -0.0964233771    -3.8850467197    -0.6759299856
Bq         0.3021942608    -3.6188902086    -1.5535772328
Bq         0.1028854418    -3.7519684641    -1.1147536092
Bq         0.0520172047    -3.6821911325    -1.0027556340
Bq         0.1317407323    -3.6289598303    -1.1782850834
Bq         0.0121554409    -3.7088067836    -0.9149909093
Bq         0.1716024960    -3.6023441792    -1.2660498082
Bq        -0.0277063229    -3.7354224347    -0.8272261846
Bq         0.2114642598    -3.5757285281    -1.3538145329
Bq        -0.0675680867    -3.7620380858    -0.7394614599
Bq         0.2513260236    -3.5491128770    -1.4415792576
Bq        -0.1074298505    -3.7886537369    -0.6516967352
Bq         0.2911877874    -3.5224972259    -1.5293439823
Bq         0.0918789685    -3.6555754814    -1.0905203587
Bq         0.0410107313    -3.5857981498    -0.9785223836
Bq         0.1207342589    -3.5325668476    -1.1540518330
Bq         0.0011489675    -3.6124138009    -0.8907576588
Bq         0.1605960227    -3.5059511965    -1.2418165577
Bq        -0.0387127963    -3.6390294520    -0.8029929341
Bq         0.2004577865    -3.4793355454    -1.3295812824
Bq        -0.0785745601    -3.6656451031    -0.7152282094
Bq         0.2403195502    -3.4527198943    -1.4173460071
Bq        -0.1184363238    -3.6922607542    -0.6274634847
Bq         0.2801813140    -3.4261042432    -1.5051107318
Bq         0.0808724951    -3.5591824987    -1.0662871083
Bq         0.0300042579    -3.4894051671    -0.9542891331
Bq         0.1097277855    -3.4361738649    -1.1298185825
Bq        -0.0098575058    -3.5160208182    -0.8665244084
Bq         0.1495895493    -3.4095582138    -1.2175833072
Bq        -0.0497192696    -3.5426364693    -0.7787596837
Bq         0.1894513131    -3.3829425627    -1.3053480320
Bq        -0.0895810334    -3.5692521204    -0.6909949590
Bq         0.2293130769    -3.3563269116    -1.3931127567
Bq        -0.1294427972    -3.5958677715    -0.6032302342
Bq         0.2691748407    -3.3297112605    -1.4808774814
Bq         0.0698660217    -3.4627895160    -1.0420538578
Bq         0.0189977846    -3.3930121844    -0.9300558826
Bq         0.0987213121    -3.3397808822    -1.1055853321
Bq        -0.0208639792    -3.4196278355    -0.8422911579
Bq         0.1385830759    -3.3131652311    -1.1933500568
Bq        -0.0607257430    -3.4462434866    -0.7545264332
Bq         0.1784448397    -3.2865495800    -1.2811147815
Bq        -0.1005875068    -3.4728591377    -0.6667617085
Bq         0.2183066035    -3.2599339288    -1.3688795062
Bq        -0.1404492706    -3.4994747888    -0.5789969838
Bq         0.2581683673    -3.2333182777    -1.4566442309
Bq         0.0588595484    -3.3663965333    -1.0178206074
Bq         0.0079913112    -3.2966192017    -0.9058226322
Bq         0.0877148388    -3.2433878995    -1.0813520816
Bq        -0.0318704526    -3.3232348528    -0.8180579075
Bq         0.1275766026    -3.2167722484    -1.1691168063
Bq        -0.0717322164    -3.3498505039    -0.7302931828
Bq         0.1674383663    -3.1901565972    -1.2568815310
Bq        -0.1115939802    -3.3764661550    -0.6425284580
Bq         0.2073001301    -3.1635409461    -1.3446462557
Bq        -0.1514557440    -3.4030818061    -0.5547637333
Bq         0.2471618939    -3.1369252950    -1.4324109805
Bq         0.0478530750    -3.2700035506    -0.9935873569
Bq        -0.0030151622    -3.2002262190    -0.8815893817
Bq         0.0767083654    -3.1469949167    -1.0571188312
Bq        -0.0428769260    -3.2268418701    -0.7938246570
Bq         0.1165701292    -3.1203792656    -1.1448835559
Bq        -0.0827386898    -3.2534575212    -0.7060599323
Bq         0.1564318930    -3.0937636145    -1.2326482806
Bq        -0.1226004535    -3.2800731723    -0.6182952076
Bq         0.1962936568    -3.0671479634    -1.3204130053
Bq        -0.1624622173    -3.3066888234    -0.5305304829
Bq         0.2361554205    -3.0405323123    -1.4081777300
Bq         0.0368466016    -3.1736105679    -0.9693541064
Bq        -0.0140216355    -3.1038332362    -0.8573561313
Bq         0.0657018920    -3.0506019340    -1.0328855807
Bq        -0.0538833993    -3.1304488874    -0.7695914066
Bq         0.1055636558    -3.0239862829    -1.1206503054
Bq        -0.0937451631    -3.1570645385    -0.6818266818
Bq         0.1454254196    -2.9973706318    -1.2084150301
Bq        -0.1336069269    -3.1836801896    -0.5940619571
Bq         0.1852871834    -2.9707549807    -1.2961797548
Bq        -0.1734686907    -3.2102958407    -0.5062972324
Bq         0.2251489472    -2.9441393296    -1.3839444795
Bq         0.0258401282    -3.0772175851    -0.9451208560
Bq        -0.0250281089    -3.0074402535    -0.8331228808
Bq         0.0546954187    -2.9542089513    -1.0086523302
Bq        -0.0648898727    -3.0340559046    -0.7453581561
Bq         0.0945571824    -2.9275933002    -1.0964170549
Bq        -0.1047516365    -3.0606715558    -0.6575934314
Bq         0.1344189462    -2.9009776491    -1.1841817797
Bq        -0.1446134003    -3.0872872069    -0.5698287067
Bq         0.1742807100    -2.8743619980    -1.2719465044

1
2
3
4
5
6
7
8
9
10
11
12
13
14
15
16
17
18
19
20
21
22
23
24
25
26
27
28
29
30
31
32
33
34
35
36
37
38
39
40
41
42
43
44
45
46
47
48
49
50
51
52
53
54
55
56
57
58
59
60
61
62
63
64
65
66
67
68
69
70
71
72
73
74
75
76
77
78
79
80
81
82
83
84
85
86
87
88
89
90
91
92
93
94
95
96
97
98
99
100
101
102
103
104
105
106
107
108
109
110
111
112
113
114
115
116
117
118
119
120
121
122
123
124
125
126
127
128
129
130
131
132
133
134
135
136
137
138
139
140
141
142
143
144
145
146
147
148
149
150
151
152
153
154
155
156
157
158
159
160
161
162
163
164
165
166
167
168
169
170
171
172
173
174
175
176
177
178
179
180
181
182
183
184
185
186
187
188
189
190
191
192
193
194
195
196
197
198
199
200
201
202
203
204
205
206
207
208
209
210
211
212
213
214
215
216
217
218
219
220
221
222
223
224
225
226
227
228
229
230
231
232
233
234
235
236

