%nproc=8
%mem=1000MB
# rb3lyp/6-311+g** NMR geom=connectivity

Title

0 1
C    -4.0500558   -0.5771862    0.8136712
H    -5.0263804   -1.0082727    1.0024760
C    -3.9381552    0.6617804    0.2400876
H    -4.8252424    1.2338890   -0.0111295
C    -2.6768410    1.2433246    0.0057578
C    -1.4974121    0.5051527    0.2848253
C    -1.6508332   -0.7338728    0.9404026
H    -0.7713646   -1.2730967    1.2633753
C    -2.8898548   -1.2624035    1.1994307
H    -2.9683706   -2.2124563    1.7152676
C    -2.5773185    2.5963696   -0.4192930
H    -3.4870728    3.1412239   -0.6474055
C    -1.3741895    3.2147896   -0.4364030
H    -1.2997315    4.2742019   -0.6578144
C    -0.1719488    2.4994090   -0.1734588
C    -0.2043917    1.1018437    0.0192689
C     1.0513491    3.2042560   -0.0676222
H     1.0427344    4.2819499   -0.1896997
C     2.1942091    2.5487446    0.2579577
H     3.1168527    3.0912848    0.4334727
C     2.2216473    1.1336562    0.2934990
C     1.0486931    0.3945528    0.0302412
C     3.4483363    0.4614633    0.5573939
H     4.3095794    1.0606054    0.8334846
C     3.5427346   -0.8855926    0.4749463
H     4.4731467   -1.3939704    0.7038822
C     2.4490052   -1.6474447   -0.0196319
C     1.2150704   -1.0057258   -0.3013573
C     0.2531113   -1.7434440   -1.0216591
H    -0.6541356   -1.2535051   -1.3462847
C     0.4494193   -3.0628597   -1.3413779
H    -0.3083162   -3.5944309   -1.9054060
C     1.6251726   -3.7207967   -0.9552541
H     1.7670048   -4.7687404   -1.1927019
C     2.6109872   -3.0144177   -0.3183050
H     3.5525612   -3.4902813   -0.0646367
Bq        -0.9032062107     1.7629993521     0.7922064568
Bq        -0.7584466803     1.7138645013    -0.1960396890
Bq        -0.8308264455     1.7384319267     0.2980833839
Bq        -0.8445902646     1.8432246272     0.3920463937
Bq        -0.8156383585     1.8333976570     0.1943971646
Bq        -0.8590662177     1.8481381122     0.4908710083
Bq        -0.8011624055     1.8284841719     0.0955725500
Bq        -0.8735421707     1.8530515973     0.5896956229
Bq        -0.7866864524     1.8235706868    -0.0032520646
Bq        -0.8880181238     1.8579650824     0.6885202375
Bq        -0.7722104994     1.8186572017    -0.1020766792
Bq        -0.9024940768     1.8628785675     0.7873448521
Bq        -0.7577345464     1.8137437167    -0.2009012938
Bq        -0.8301143116     1.8383111421     0.2932217791
Bq        -0.8438781307     1.9431038425     0.3871847890
Bq        -0.8149262246     1.9332768724     0.1895355598
Bq        -0.8583540837     1.9480173276     0.4860094035
Bq        -0.8004502715     1.9283633873     0.0907109452
Bq        -0.8728300368     1.9529308127     0.5848340181
Bq        -0.7859743185     1.9234499022    -0.0081136694
Bq        -0.8873059898     1.9578442978     0.6836586327
Bq        -0.7714983655     1.9185364171    -0.1069382840
Bq        -0.9017819429     1.9627577829     0.7824832473
Bq        -0.7570224124     1.9136229320    -0.2057628986
Bq        -0.8294021776     1.9381903575     0.2883601744
Bq        -0.8431659967     2.0429830579     0.3823231842
Bq        -0.8142140906     2.0331560878     0.1846739550
Bq        -0.8576419498     2.0478965430     0.4811477988
Bq        -0.7997381376     2.0282426027     0.0858493404
Bq        -0.8721179028     2.0528100281     0.5799724134
Bq        -0.7852621846     2.0233291176    -0.0129752741
Bq        -0.8865938559     2.0577235132     0.6787970279
Bq        -0.7707862315     2.0184156325    -0.1117998887
Bq        -0.9010698089     2.0626369982     0.7776216425
Bq        -0.7563102785     2.0135021474    -0.2106245033
Bq        -0.8286900437     2.0380695728     0.2834985696
Bq        -0.8424538628     2.1428622733     0.3774615794
Bq        -0.8135019567     2.1330353031     0.1798123503
Bq        -0.8569298158     2.1477757584     0.4762861940
Bq        -0.7990260037     2.1281218180     0.0809877357
Bq        -0.8714057689     2.1526892435     0.5751108086
Bq        -0.7845500506     2.1232083330    -0.0178368789
Bq        -0.8858817219     2.1576027285     0.6739354232
Bq        -0.7700740976     2.1182948479    -0.1166614935
Bq        -0.9003576750     2.1625162136     0.7727600378
Bq        -0.7555981445     2.1133813628    -0.2154861081
Bq        -0.8279779098     2.1379487882     0.2786369648
Bq        -0.8417417289     2.2427414887     0.3725999747
Bq        -0.8127898228     2.2329145185     0.1749507455
Bq        -0.8562176819     2.2476549738     0.4714245892
Bq        -0.7983138697     2.2280010334     0.0761261309
Bq        -0.8706936349     2.2525684588     0.5702492038
Bq        -0.7838379167     2.2230875483    -0.0226984837
Bq        -0.8851695880     2.2574819439     0.6690738184
Bq        -0.7693619636     2.2181740633    -0.1215230983
Bq        -0.8996455410     2.2623954290     0.7678984330
Bq        -0.7548860106     2.2132605782    -0.2203477129
Bq        -0.8272657758     2.2378280036     0.2737753601
Bq        -0.8410295949     2.3426207040     0.3677383699
Bq        -0.8120776888     2.3327937339     0.1700891407
Bq        -0.8555055480     2.3475341891     0.4665629845
Bq        -0.7976017358     2.3278802488     0.0712645261
Bq        -0.8699815010     2.3524476742     0.5653875991
Bq        -0.7831257827     2.3229667637    -0.0275600884
Bq        -0.8844574540     2.3573611593     0.6642122136
Bq        -0.7686498297     2.3180532786    -0.1263847030
Bq        -0.8989334071     2.3622746444     0.7630368282
Bq        -0.7541738766     2.3131397936    -0.2252093176
Bq        -0.8265536419     2.3377072190     0.2689137553
Bq        -0.8403174610     2.4424999194     0.3628767651
Bq        -0.8113655549     2.4326729493     0.1652275360
Bq        -0.8547934140     2.4474134045     0.4617013797
Bq        -0.7968896018     2.4277594642     0.0664029214
Bq        -0.8692693671     2.4523268896     0.5605259943
Bq        -0.7824136488     2.4228459791    -0.0324216932
Bq        -0.8837453201     2.4572403747     0.6593506089
Bq        -0.7679376957     2.4179324940    -0.1312463078
Bq        -0.8982212731     2.4621538598     0.7581752235
Bq        -0.7534617427     2.4130190089    -0.2300709224
Bq        -0.8258415079     2.4375864343     0.2640521505
Bq        -0.8396053270     2.5423791348     0.3580151604
Bq        -0.8106534209     2.5325521646     0.1603659312
Bq        -0.8540812801     2.5472926199     0.4568397749
Bq        -0.7961774679     2.5276386796     0.0615413166
Bq        -0.8685572331     2.5522061050     0.5556643895
Bq        -0.7817015149     2.5227251945    -0.0372832980
Bq        -0.8830331862     2.5571195900     0.6544890041
Bq        -0.7672255618     2.5178117094    -0.1361079126
Bq        -0.8975091392     2.5620330751     0.7533136187
Bq        -0.7527496088     2.5128982243    -0.2349325272
Bq        -0.8251293740     2.5374656497     0.2591905458
Bq        -0.8388931931     2.6422583502     0.3531535556
Bq        -0.8099412870     2.6324313800     0.1555043264
Bq        -0.8533691461     2.6471718353     0.4519781702
Bq        -0.7954653340     2.6275178949     0.0566797118
Bq        -0.8678450992     2.6520853203     0.5508027848
Bq        -0.7809893809     2.6226044098    -0.0421449027
Bq        -0.8823210522     2.6569988054     0.6496273993
Bq        -0.7665134279     2.6176909248    -0.1409695173
Bq        -0.8967970053     2.6619122905     0.7484520139
Bq        -0.7520374748     2.6127774397    -0.2397941319
Bq        -0.8244172400     2.6373448651     0.2543289410
Bq        -0.8381810591     2.7421375656     0.3482919508
Bq        -0.8092291531     2.7323105954     0.1506427217
Bq        -0.8526570122     2.7470510506     0.4471165654
Bq        -0.7947532000     2.7273971103     0.0518181071
Bq        -0.8671329652     2.7519645357     0.5459411800
Bq        -0.7802772470     2.7224836252    -0.0470065075
Bq        -0.8816089183     2.7568780208     0.6447657946
Bq        -0.7658012939     2.7175701401    -0.1458311221
Bq        -0.8960848713     2.7617915059     0.7435904092
Bq        -0.7513253409     2.7126566551    -0.2446557367
Bq        -0.8237051061     2.7372240805     0.2494673362
Bq        -0.8374689252     2.8420167809     0.3434303461
Bq        -0.8085170191     2.8321898108     0.1457811169
Bq        -0.8519448782     2.8469302660     0.4422549606
Bq        -0.7940410661     2.8272763257     0.0469565023
Bq        -0.8664208313     2.8518437511     0.5410795752
Bq        -0.7795651130     2.8223628406    -0.0518681123
Bq        -0.8808967843     2.8567572362     0.6399041898
Bq        -0.7650891600     2.8174493555    -0.1506927269
Bq        -0.8953727374     2.8616707213     0.7387288044
Bq        -0.7506132069     2.8125358704    -0.2495173414
Bq        -0.8229929722     2.8371032959     0.2446057315
Bq        -0.8367567913     2.9418959963     0.3385687413
Bq        -0.8078048852     2.9320690261     0.1409195121
Bq        -0.8512327443     2.9468094814     0.4373933559
Bq        -0.7933289321     2.9271555411     0.0420948975
Bq        -0.8657086974     2.9517229665     0.5362179705
Bq        -0.7788529791     2.9222420560    -0.0567297170
Bq        -0.8801846504     2.9566364516     0.6350425850
Bq        -0.7643770260     2.9173285709    -0.1555543316
Bq        -0.8946606034     2.9615499366     0.7338671996
Bq        -0.7499010730     2.9124150858    -0.2543789462
Bq        -0.8222808382     2.9369825112     0.2397441267
Bq        -0.8360446573     3.0417752117     0.3337071365
Bq        -0.8070927512     3.0319482415     0.1360579074
Bq        -0.8505206104     3.0466886968     0.4325317511
Bq        -0.7926167982     3.0270347564     0.0372332928
Bq        -0.8649965634     3.0516021819     0.5313563657
Bq        -0.7781408451     3.0221212714    -0.0615913218
Bq        -0.8794725165     3.0565156669     0.6301809803
Bq        -0.7636648921     3.0172077863    -0.1604159364
Bq        -0.8939484695     3.0614291520     0.7290055949
Bq        -0.7491889391     3.0122943012    -0.2592405510
Bq        -0.8215687043     3.0368617266     0.2348825219
Bq        -0.8353325234     3.1416544271     0.3288455318
Bq        -0.8063806173     3.1318274569     0.1311963026
Bq        -0.8498084764     3.1465679121     0.4276701463
Bq        -0.7919046642     3.1269139718     0.0323716880
Bq        -0.8642844295     3.1514813972     0.5264947609
Bq        -0.7774287112     3.1220004867    -0.0664529266
Bq        -0.8787603825     3.1563948823     0.6253193755
Bq        -0.7629527582     3.1170870017    -0.1652775412
Bq        -0.8932363356     3.1613083674     0.7241439901
Bq        -0.7484768051     3.1121735166    -0.2641021557
Bq        -0.8208565703     3.1367409420     0.2300209172
Bq        -0.8346203894     3.2415336424     0.3239839270
Bq        -0.8056684833     3.2317066723     0.1263346978
Bq        -0.8490963425     3.2464471275     0.4228085416
Bq        -0.7911925303     3.2267931872     0.0275100832
Bq        -0.8635722955     3.2513606126     0.5216331562
Bq        -0.7767165773     3.2218797021    -0.0713145313
Bq        -0.8780482486     3.2562740977     0.6204577707
Bq        -0.7622406242     3.2169662170    -0.1701391459
Bq        -0.8925242016     3.2611875828     0.7192823853
Bq        -0.7477646712     3.2120527319    -0.2689637605
Bq        -0.8201444364     3.2366201574     0.2251593124
Bq        -0.8339082555     3.3414128578     0.3191223222
Bq        -0.8049563494     3.3315858877     0.1214730931
Bq        -0.8483842085     3.3463263429     0.4179469368
Bq        -0.7904803964     3.3266724026     0.0226484785
Bq        -0.8628601616     3.3512398280     0.5167715514
Bq        -0.7760044433     3.3217589175    -0.0761761361
Bq        -0.8773361146     3.3561533131     0.6155961660
Bq        -0.7615284903     3.3168454324    -0.1750007507
Bq        -0.8918120677     3.3610667981     0.7144207806
Bq        -0.7470525372     3.3119319473    -0.2738253653
Bq        -0.8194323025     3.3364993727     0.2202977076
Bq        -0.8331961216     3.4412920732     0.3142607175
Bq        -0.8042442155     3.4314651030     0.1166114883
Bq        -0.8476720746     3.4462055583     0.4130853320
Bq        -0.7897682624     3.4265516179     0.0177868737
Bq        -0.8621480276     3.4511190434     0.5119099466
Bq        -0.7752923094     3.4216381329    -0.0810377409
Bq        -0.8766239807     3.4560325284     0.6107345612
Bq        -0.7608163563     3.4167246478    -0.1798623555
Bq        -0.8910999337     3.4609460135     0.7095591758
Bq        -0.7463404033     3.4118111627    -0.2786869700
Bq        -0.8187201685     3.4363785881     0.2154361029
Bq        -0.8324839876     3.5411712886     0.3093991127
Bq        -0.8035320815     3.5313443184     0.1117498835
Bq        -0.8469599407     3.5460847737     0.4082237273
Bq        -0.7890561285     3.5264308333     0.0129252689
Bq        -0.8614358937     3.5509982587     0.5070483419
Bq        -0.7745801754     3.5215173482    -0.0858993456
Bq        -0.8759118467     3.5559117438     0.6058729564
Bq        -0.7601042224     3.5166038632    -0.1847239602
Bq        -0.8903877998     3.5608252289     0.7046975710
Bq        -0.7456282693     3.5116903781    -0.2835485748

1
2
3
4
5
6
7
8
9
10
11
12
13
14
15
16
17
18
19
20
21
22
23
24
25
26
27
28
29
30
31
32
33
34
35
36
37
38
39
40
41
42
43
44
45
46
47
48
49
50
51
52
53
54
55
56
57
58
59
60
61
62
63
64
65
66
67
68
69
70
71
72
73
74
75
76
77
78
79
80
81
82
83
84
85
86
87
88
89
90
91
92
93
94
95
96
97
98
99
100
101
102
103
104
105
106
107
108
109
110
111
112
113
114
115
116
117
118
119
120
121
122
123
124
125
126
127
128
129
130
131
132
133
134
135
136
137
138
139
140
141
142
143
144
145
146
147
148
149
150
151
152
153
154
155
156
157
158
159
160
161
162
163
164
165
166
167
168
169
170
171
172
173
174
175
176
177
178
179
180
181
182
183
184
185
186
187
188
189
190
191
192
193
194
195
196
197
198
199
200
201
202
203
204
205
206
207
208
209
210
211
212
213
214
215
216
217
218
219
220
221
222
223
224
225
226
227
228
229
230
231
232
233
234
235
236

