%nproc=8
%mem=1000MB
# rb3lyp/6-311+g** NMR geom=connectivity

Title

0 1
C    -4.0500558   -0.5771862    0.8136712
H    -5.0263804   -1.0082727    1.0024760
C    -3.9381552    0.6617804    0.2400876
H    -4.8252424    1.2338890   -0.0111295
C    -2.6768410    1.2433246    0.0057578
C    -1.4974121    0.5051527    0.2848253
C    -1.6508332   -0.7338728    0.9404026
H    -0.7713646   -1.2730967    1.2633753
C    -2.8898548   -1.2624035    1.1994307
H    -2.9683706   -2.2124563    1.7152676
C    -2.5773185    2.5963696   -0.4192930
H    -3.4870728    3.1412239   -0.6474055
C    -1.3741895    3.2147896   -0.4364030
H    -1.2997315    4.2742019   -0.6578144
C    -0.1719488    2.4994090   -0.1734588
C    -0.2043917    1.1018437    0.0192689
C     1.0513491    3.2042560   -0.0676222
H     1.0427344    4.2819499   -0.1896997
C     2.1942091    2.5487446    0.2579577
H     3.1168527    3.0912848    0.4334727
C     2.2216473    1.1336562    0.2934990
C     1.0486931    0.3945528    0.0302412
C     3.4483363    0.4614633    0.5573939
H     4.3095794    1.0606054    0.8334846
C     3.5427346   -0.8855926    0.4749463
H     4.4731467   -1.3939704    0.7038822
C     2.4490052   -1.6474447   -0.0196319
C     1.2150704   -1.0057258   -0.3013573
C     0.2531113   -1.7434440   -1.0216591
H    -0.6541356   -1.2535051   -1.3462847
C     0.4494193   -3.0628597   -1.3413779
H    -0.3083162   -3.5944309   -1.9054060
C     1.6251726   -3.7207967   -0.9552541
H     1.7670048   -4.7687404   -1.1927019
C     2.6109872   -3.0144177   -0.3183050
H     3.5525612   -3.4902813   -0.0646367
Bq        -0.5679309176     1.0491043892     0.5732442232
Bq        -0.5100271054     1.0294504489     0.1779457648
Bq        -0.5824068706     1.0540178743     0.6720688378
Bq        -0.4955511524     1.0245369638     0.0791211503
Bq        -0.5968828237     1.0589313594     0.7708934524
Bq        -0.4810751993     1.0196234787    -0.0197034643
Bq        -0.6113587767     1.0638448445     0.8697180669
Bq        -0.4665992463     1.0147099936    -0.1185280789
Bq        -0.5389790115     1.0392774191     0.3755949940
Bq        -0.5527428306     1.1440701195     0.4695580038
Bq        -0.5237909245     1.1342431494     0.2719087747
Bq        -0.5672187836     1.1489836046     0.5683826184
Bq        -0.5093149715     1.1293296643     0.1730841601
Bq        -0.5816947367     1.1538970897     0.6672072330
Bq        -0.4948390184     1.1244161792     0.0742595455
Bq        -0.5961706897     1.1588105748     0.7660318476
Bq        -0.4803630654     1.1195026941    -0.0245650691
Bq        -0.6106466428     1.1637240599     0.8648564622
Bq        -0.4658871123     1.1145892090    -0.1233896837
Bq        -0.5382668776     1.1391566344     0.3707333892
Bq        -0.5520306967     1.2439493349     0.4646963991
Bq        -0.5230787906     1.2341223647     0.2670471699
Bq        -0.5665066497     1.2488628200     0.5635210136
Bq        -0.5086028375     1.2292088797     0.1682225553
Bq        -0.5809826027     1.2537763051     0.6623456282
Bq        -0.4941268845     1.2242953946     0.0693979407
Bq        -0.5954585558     1.2586897901     0.7611702428
Bq        -0.4796509314     1.2193819095    -0.0294266739
Bq        -0.6099345088     1.2636032752     0.8599948574
Bq        -0.4651749784     1.2144684244    -0.1282512884
Bq        -0.5375547436     1.2390358498     0.3658717845
Bq        -0.5513185627     1.3438285503     0.4598347943
Bq        -0.5223666566     1.3340015801     0.2621855651
Bq        -0.5657945158     1.3487420354     0.5586594089
Bq        -0.5078907036     1.3290880950     0.1633609505
Bq        -0.5802704688     1.3536555204     0.6574840235
Bq        -0.4934147505     1.3241746099     0.0645363360
Bq        -0.5947464218     1.3585690055     0.7563086381
Bq        -0.4789387975     1.3192611249    -0.0342882786
Bq        -0.6092223749     1.3634824906     0.8551332526
Bq        -0.4644628444     1.3143476398    -0.1331128932
Bq        -0.5368426097     1.3389150652     0.3610101797
Bq        -0.5506064288     1.4437077657     0.4549731895
Bq        -0.5216545227     1.4338807955     0.2573239604
Bq        -0.5650823818     1.4486212507     0.5537978041
Bq        -0.5071785696     1.4289673104     0.1584993458
Bq        -0.5795583349     1.4535347358     0.6526224187
Bq        -0.4927026166     1.4240538253     0.0596747312
Bq        -0.5940342879     1.4584482209     0.7514470333
Bq        -0.4782266636     1.4191403402    -0.0391498834
Bq        -0.6085102409     1.4633617060     0.8502716479
Bq        -0.4637507105     1.4142268552    -0.1379744980
Bq        -0.5361304757     1.4387942806     0.3561485749
Bq        -0.5498942948     1.5435869810     0.4501115848
Bq        -0.5209423887     1.5337600109     0.2524623556
Bq        -0.5643702479     1.5485004661     0.5489361993
Bq        -0.5064664357     1.5288465258     0.1536377410
Bq        -0.5788462009     1.5534139512     0.6477608139
Bq        -0.4919904827     1.5239330407     0.0548131264
Bq        -0.5933221540     1.5583274363     0.7465854285
Bq        -0.4775145296     1.5190195556    -0.0440114882
Bq        -0.6077981070     1.5632409214     0.8454100431
Bq        -0.4630385766     1.5141060705    -0.1428361027
Bq        -0.5354183418     1.5386734959     0.3512869702
Bq        -0.5491821609     1.6434661964     0.4452499800
Bq        -0.5202302548     1.6336392262     0.2476007508
Bq        -0.5636581139     1.6483796815     0.5440745946
Bq        -0.5057543018     1.6287257412     0.1487761362
Bq        -0.5781340670     1.6532931666     0.6428992092
Bq        -0.4912783487     1.6238122561     0.0499515217
Bq        -0.5926100200     1.6582066517     0.7417238238
Bq        -0.4768023957     1.6188987710    -0.0488730929
Bq        -0.6070859731     1.6631201367     0.8405484383
Bq        -0.4623264426     1.6139852859    -0.1476977075
Bq        -0.5347062078     1.6385527113     0.3464253654
Bq        -0.5484700269     1.7433454118     0.4403883752
Bq        -0.5195181209     1.7335184416     0.2427391461
Bq        -0.5629459800     1.7482588969     0.5392129898
Bq        -0.5050421678     1.7286049565     0.1439145315
Bq        -0.5774219330     1.7531723819     0.6380376044
Bq        -0.4905662148     1.7236914715     0.0450899169
Bq        -0.5918978861     1.7580858670     0.7368622190
Bq        -0.4760902617     1.7187779864    -0.0537346977
Bq        -0.6063738391     1.7629993521     0.8356868336
Bq        -0.4616143087     1.7138645013    -0.1525593123
Bq        -0.5339940739     1.7384319267     0.3415637606
Bq        -0.5477578930     1.8432246272     0.4355267705
Bq        -0.5188059869     1.8333976570     0.2378775413
Bq        -0.5622338460     1.8481381122     0.5343513850
Bq        -0.5043300339     1.8284841719     0.1390529267
Bq        -0.5767097991     1.8530515973     0.6331759996
Bq        -0.4898540808     1.8235706868     0.0402283121
Bq        -0.5911857521     1.8579650824     0.7320006142
Bq        -0.4753781278     1.8186572017    -0.0585963025
Bq        -0.6056617052     1.8628785675     0.8308252288
Bq        -0.4609021747     1.8137437167    -0.1574209170
Bq        -0.5332819400     1.8383111421     0.3367021559
Bq        -0.5470457591     1.9431038425     0.4306651657
Bq        -0.5180938530     1.9332768724     0.2330159365
Bq        -0.5615217121     1.9480173276     0.5294897803
Bq        -0.5036178999     1.9283633873     0.1341913219
Bq        -0.5759976652     1.9529308127     0.6283143949
Bq        -0.4891419469     1.9234499022     0.0353667074
Bq        -0.5904736182     1.9578442978     0.7271390095
Bq        -0.4746659938     1.9185364171    -0.0634579072
Bq        -0.6049495712     1.9627577829     0.8259636240
Bq        -0.4601900408     1.9136229320    -0.1622825218
Bq        -0.5325698060     1.9381903575     0.3318405511
Bq        -0.5463336251     2.0429830579     0.4258035609
Bq        -0.5173817190     2.0331560878     0.2281543318
Bq        -0.5608095782     2.0478965430     0.5246281755
Bq        -0.5029057660     2.0282426027     0.1293297172
Bq        -0.5752855312     2.0528100281     0.6234527901
Bq        -0.4884298129     2.0233291176     0.0305051026
Bq        -0.5897614843     2.0577235132     0.7222774047
Bq        -0.4739538599     2.0184156325    -0.0683195120
Bq        -0.6042374373     2.0626369982     0.8211020193
Bq        -0.4594779069     2.0135021474    -0.1671441266
Bq        -0.5318576721     2.0380695728     0.3269789463
Bq        -0.5456214912     2.1428622733     0.4209419562
Bq        -0.5166695851     2.1330353031     0.2232927270
Bq        -0.5600974442     2.1477757584     0.5197665708
Bq        -0.5021936320     2.1281218180     0.1244681124
Bq        -0.5745733973     2.1526892435     0.6185911853
Bq        -0.4877176790     2.1232083330     0.0256434978
Bq        -0.5890493503     2.1576027285     0.7174157999
Bq        -0.4732417260     2.1182948479    -0.0731811168
Bq        -0.6035253034     2.1625162136     0.8162404145
Bq        -0.4587657729     2.1133813628    -0.1720057313
Bq        -0.5311455381     2.1379487882     0.3221173416
Bq        -0.5449093572     2.2427414887     0.4160803514
Bq        -0.5159574512     2.2329145185     0.2184311222
Bq        -0.5593853103     2.2476549738     0.5149049660
Bq        -0.5014814981     2.2280010334     0.1196065076
Bq        -0.5738612633     2.2525684588     0.6137295806
Bq        -0.4870055451     2.2230875483     0.0207818931
Bq        -0.5883372164     2.2574819439     0.7125541952
Bq        -0.4725295920     2.2181740633    -0.0780427215
Bq        -0.6028131694     2.2623954290     0.8113788097
Bq        -0.4580536390     2.2132605782    -0.1768673361
Bq        -0.5304334042     2.2378280036     0.3172557368
Bq        -0.5441972233     2.3426207040     0.4112187466
Bq        -0.5152453172     2.3327937339     0.2135695175
Bq        -0.5586731763     2.3475341891     0.5100433612
Bq        -0.5007693642     2.3278802488     0.1147449029
Bq        -0.5731491294     2.3524476742     0.6088679758
Bq        -0.4862934111     2.3229667637     0.0159202883
Bq        -0.5876250824     2.3573611593     0.7076925904
Bq        -0.4718174581     2.3180532786    -0.0829043263
Bq        -0.6021010355     2.3622746444     0.8065172050
Bq        -0.4573415050     2.3131397936    -0.1817289409
Bq        -0.5297212703     2.3377072190     0.3123941320
Bq        -0.5434850894     2.4424999194     0.4063571419
Bq        -0.5145331833     2.4326729493     0.2087079127
Bq        -0.5579610424     2.4474134045     0.5051817565
Bq        -0.5000572302     2.4277594642     0.1098832981
Bq        -0.5724369954     2.4523268896     0.6040063710
Bq        -0.4855812772     2.4228459791     0.0110586835
Bq        -0.5869129485     2.4572403747     0.7028309856
Bq        -0.4711053241     2.4179324940    -0.0877659311
Bq        -0.6013889015     2.4621538598     0.8016556002
Bq        -0.4566293711     2.4130190089    -0.1865905456
Bq        -0.5290091363     2.4375864343     0.3075325273
Bq        -0.5427729554     2.5423791348     0.4014955371
Bq        -0.5138210493     2.5325521646     0.2038463079
Bq        -0.5572489085     2.5472926199     0.5003201517
Bq        -0.4993450963     2.5276386796     0.1050216933
Bq        -0.5717248615     2.5522061050     0.5991447663
Bq        -0.4848691432     2.5227251945     0.0061970788
Bq        -0.5862008145     2.5571195900     0.6979693809
Bq        -0.4703931902     2.5178117094    -0.0926275358
Bq        -0.6006767676     2.5620330751     0.7967939954
Bq        -0.4559172371     2.5128982243    -0.1914521504
Bq        -0.5282970024     2.5374656497     0.3026709225
Bq        -0.5420608215     2.6422583502     0.3966339323
Bq        -0.5131089154     2.6324313800     0.1989847032
Bq        -0.5565367745     2.6471718353     0.4954585469
Bq        -0.4986329623     2.6275178949     0.1001600886
Bq        -0.5710127276     2.6520853203     0.5942831615
Bq        -0.4841570093     2.6226044098     0.0013354740
Bq        -0.5854886806     2.6569988054     0.6931077761
Bq        -0.4696810563     2.6176909248    -0.0974891406
Bq        -0.5999646336     2.6619122905     0.7919323907
Bq        -0.4552051032     2.6127774397    -0.1963137552
Bq        -0.5275848684     2.6373448651     0.2978093177
Bq        -0.5413486875     2.7421375656     0.3917723276
Bq        -0.5123967814     2.7323105954     0.1941230984
Bq        -0.5558246406     2.7470510506     0.4905969422
Bq        -0.4979208284     2.7273971103     0.0952984838
Bq        -0.5703005936     2.7519645357     0.5894215567
Bq        -0.4834448754     2.7224836252    -0.0035261308
Bq        -0.5847765467     2.7568780208     0.6882461713
Bq        -0.4689689223     2.7175701401    -0.1023507454
Bq        -0.5992524997     2.7617915059     0.7870707859
Bq        -0.4544929693     2.7126566551    -0.2011753599
Bq        -0.5268727345     2.7372240805     0.2929477130
Bq        -0.5406365536     2.8420167809     0.3869107228
Bq        -0.5116846475     2.8321898108     0.1892614936
Bq        -0.5551125066     2.8469302660     0.4857353374
Bq        -0.4972086945     2.8272763257     0.0904368790

1
2
3
4
5
6
7
8
9
10
11
12
13
14
15
16
17
18
19
20
21
22
23
24
25
26
27
28
29
30
31
32
33
34
35
36
37
38
39
40
41
42
43
44
45
46
47
48
49
50
51
52
53
54
55
56
57
58
59
60
61
62
63
64
65
66
67
68
69
70
71
72
73
74
75
76
77
78
79
80
81
82
83
84
85
86
87
88
89
90
91
92
93
94
95
96
97
98
99
100
101
102
103
104
105
106
107
108
109
110
111
112
113
114
115
116
117
118
119
120
121
122
123
124
125
126
127
128
129
130
131
132
133
134
135
136
137
138
139
140
141
142
143
144
145
146
147
148
149
150
151
152
153
154
155
156
157
158
159
160
161
162
163
164
165
166
167
168
169
170
171
172
173
174
175
176
177
178
179
180
181
182
183
184
185
186
187
188
189
190
191
192
193
194
195
196
197
198
199
200
201
202
203
204
205
206
207
208
209
210
211
212
213
214
215
216
217
218
219
220
221
222
223
224
225
226
227
228
229
230
231
232
233
234
235
236

