%nproc=8
%mem=1000MB
# rb3lyp/6-311+g** NMR geom=connectivity

Title

0 1
C    -4.0500558   -0.5771862    0.8136712
H    -5.0263804   -1.0082727    1.0024760
C    -3.9381552    0.6617804    0.2400876
H    -4.8252424    1.2338890   -0.0111295
C    -2.6768410    1.2433246    0.0057578
C    -1.4974121    0.5051527    0.2848253
C    -1.6508332   -0.7338728    0.9404026
H    -0.7713646   -1.2730967    1.2633753
C    -2.8898548   -1.2624035    1.1994307
H    -2.9683706   -2.2124563    1.7152676
C    -2.5773185    2.5963696   -0.4192930
H    -3.4870728    3.1412239   -0.6474055
C    -1.3741895    3.2147896   -0.4364030
H    -1.2997315    4.2742019   -0.6578144
C    -0.1719488    2.4994090   -0.1734588
C    -0.2043917    1.1018437    0.0192689
C     1.0513491    3.2042560   -0.0676222
H     1.0427344    4.2819499   -0.1896997
C     2.1942091    2.5487446    0.2579577
H     3.1168527    3.0912848    0.4334727
C     2.2216473    1.1336562    0.2934990
C     1.0486931    0.3945528    0.0302412
C     3.4483363    0.4614633    0.5573939
H     4.3095794    1.0606054    0.8334846
C     3.5427346   -0.8855926    0.4749463
H     4.4731467   -1.3939704    0.7038822
C     2.4490052   -1.6474447   -0.0196319
C     1.2150704   -1.0057258   -0.3013573
C     0.2531113   -1.7434440   -1.0216591
H    -0.6541356   -1.2535051   -1.3462847
C     0.4494193   -3.0628597   -1.3413779
H    -0.3083162   -3.5944309   -1.9054060
C     1.6251726   -3.7207967   -0.9552541
H     1.7670048   -4.7687404   -1.1927019
C     2.6109872   -3.0144177   -0.3183050
H     3.5525612   -3.4902813   -0.0646367
Bq        -0.6727875158     3.9210342098    -0.0908523058
Bq        -0.7741191871     3.9554286053     0.6009199963
Bq        -0.6583115628     3.9161207247    -0.1896769204
Bq        -0.7885951402     3.9603420904     0.6997446109
Bq        -0.6438356097     3.9112072396    -0.2885015350
Bq        -0.7162153749     3.9357746650     0.2056215380
Bq        -0.7299791940     4.0405673655     0.2995845478
Bq        -0.7010272879     4.0307403953     0.1019353186
Bq        -0.7444551471     4.0454808505     0.3984091624
Bq        -0.6865513349     4.0258269102     0.0031107040
Bq        -0.7589311001     4.0503943356     0.4972337769
Bq        -0.6720753819     4.0209134251    -0.0957139106
Bq        -0.7734070532     4.0553078207     0.5960583915
Bq        -0.6575994288     4.0159999400    -0.1945385251
Bq        -0.7878830062     4.0602213058     0.6948830061
Bq        -0.6431234758     4.0110864550    -0.2933631397
Bq        -0.7155032410     4.0356538804     0.2007599332
Bq        -0.7292670601     4.1404465808     0.2947229430
Bq        -0.7003151540     4.1306196107     0.0970737138
Bq        -0.7437430131     4.1453600659     0.3935475576
Bq        -0.6858392010     4.1257061256    -0.0017509007
Bq        -0.7582189662     4.1502735510     0.4923721722
Bq        -0.6713632479     4.1207926405    -0.1005755153
Bq        -0.7726949192     4.1551870361     0.5911967868
Bq        -0.6568872949     4.1158791554    -0.1994001299
Bq        -0.7871708723     4.1601005212     0.6900214013
Bq        -0.6424113418     4.1109656703    -0.2982247445
Bq        -0.7147911070     4.1355330958     0.1958983284
Bq        -0.7285549261     4.2403257962     0.2898613382
Bq        -0.6996030201     4.2304988260     0.0922121091
Bq        -0.7430308792     4.2452392813     0.3886859528
Bq        -0.6851270670     4.2255853410    -0.0066125055
Bq        -0.7575068322     4.2501527664     0.4875105674
Bq        -0.6706511140     4.2206718559    -0.1054371201
Bq        -0.7719827853     4.2550662515     0.5863351820
Bq        -0.6561751609     4.2157583708    -0.2042617347
Bq        -0.7864587383     4.2599797365     0.6851597966
Bq        -0.6416992079     4.2108448857    -0.3030863493
Bq        -0.7140789731     4.2354123111     0.1910367237
Bq        -0.7278427922     4.3402050116     0.2849997335
Bq        -0.6988908861     4.3303780414     0.0873505043
Bq        -0.7423187453     4.3451184967     0.3838243481
Bq        -0.6844149331     4.3254645563    -0.0114741103
Bq        -0.7567946983     4.3500319818     0.4826489626
Bq        -0.6699389800     4.3205510713    -0.1102987249
Bq        -0.7712706513     4.3549454668     0.5814735772
Bq        -0.6554630270     4.3156375862    -0.2091233394
Bq        -0.7857466044     4.3598589519     0.6802981918
Bq        -0.6409870739     4.3107241011    -0.3079479540
Bq        -0.7133668392     4.3352915265     0.1861751189
Bq        -0.6645053654    -0.6537557573     0.5425734307
Bq        -0.6355534593    -0.6635827274     0.3449242015
Bq        -0.6789813185    -0.6488422722     0.6413980453
Bq        -0.6210775063    -0.6684962125     0.2460995870
Bq        -0.6934572715    -0.6439287871     0.7402226599
Bq        -0.6066015532    -0.6734096976     0.1472749724
Bq        -0.7079332246    -0.6390153020     0.8390472745
Bq        -0.5921256002    -0.6783231827     0.0484503578
Bq        -0.7224091776    -0.6341018169     0.9378718891
Bq        -0.5776496472    -0.6832366678    -0.0503742568
Bq        -0.6500294124    -0.6586692423     0.4437488161
Bq        -0.6637932315    -0.5538765419     0.5377118259
Bq        -0.6348413254    -0.5637035121     0.3400625968
Bq        -0.6782691845    -0.5489630568     0.6365364405
Bq        -0.6203653723    -0.5686169971     0.2412379822
Bq        -0.6927451376    -0.5440495717     0.7353610551
Bq        -0.6058894193    -0.5735304822     0.1424133676
Bq        -0.7072210906    -0.5391360866     0.8341856697
Bq        -0.5914134663    -0.5784439673     0.0435887530
Bq        -0.7216970437    -0.5342226016     0.9330102843
Bq        -0.5769375132    -0.5833574524    -0.0552358616
Bq        -0.6493172784    -0.5587900270     0.4388872114
Bq        -0.6630810975    -0.4539973265     0.5328502212
Bq        -0.6341291914    -0.4638242967     0.3352009920
Bq        -0.6775570506    -0.4490838414     0.6316748358
Bq        -0.6196532384    -0.4687377818     0.2363763774
Bq        -0.6920330036    -0.4441703563     0.7304994503
Bq        -0.6051772854    -0.4736512668     0.1375517628
Bq        -0.7065089567    -0.4392568713     0.8293240649
Bq        -0.5907013323    -0.4785647519     0.0387271483
Bq        -0.7209849097    -0.4343433862     0.9281486795
Bq        -0.5762253793    -0.4834782370    -0.0600974663
Bq        -0.6486051445    -0.4589108116     0.4340256066
Bq        -0.6623689636    -0.3541181111     0.5279886164
Bq        -0.6334170575    -0.3639450813     0.3303393872
Bq        -0.6768449166    -0.3492046261     0.6268132310
Bq        -0.6189411045    -0.3688585664     0.2315147727
Bq        -0.6913208697    -0.3442911410     0.7256378456
Bq        -0.6044651514    -0.3737720515     0.1326901581
Bq        -0.7057968227    -0.3393776559     0.8244624602
Bq        -0.5899891984    -0.3786855365     0.0338655435
Bq        -0.7202727758    -0.3344641708     0.9232870748
Bq        -0.5755132453    -0.3835990216    -0.0649590711
Bq        -0.6478930105    -0.3590315962     0.4291640018
Bq        -0.6616568297    -0.2542388958     0.5231270116
Bq        -0.6327049236    -0.2640658659     0.3254777825
Bq        -0.6761327827    -0.2493254107     0.6219516262
Bq        -0.6182289705    -0.2689793510     0.2266531679
Bq        -0.6906087357    -0.2444119256     0.7207762408
Bq        -0.6037530175    -0.2738928361     0.1278285533
Bq        -0.7050846888    -0.2394984405     0.8196008554
Bq        -0.5892770644    -0.2788063212     0.0290039387
Bq        -0.7195606418    -0.2345849554     0.9184254700
Bq        -0.5748011114    -0.2837198063    -0.0698206759
Bq        -0.6471808766    -0.2591523808     0.4243023971
Bq        -0.6609446957    -0.1543596804     0.5182654069
Bq        -0.6319927896    -0.1641866505     0.3206161777
Bq        -0.6754206488    -0.1494461953     0.6170900215
Bq        -0.6175168366    -0.1691001356     0.2217915631
Bq        -0.6898966018    -0.1445327102     0.7159146360
Bq        -0.6030408835    -0.1740136207     0.1229669485
Bq        -0.7043725548    -0.1396192251     0.8147392506
Bq        -0.5885649305    -0.1789271058     0.0241423340
Bq        -0.7188485079    -0.1347057400     0.9135638652
Bq        -0.5740889774    -0.1838405909    -0.0746822806
Bq        -0.6464687427    -0.1592731655     0.4194407923
Bq        -0.6602325618    -0.0544804650     0.5134038021
Bq        -0.6312806557    -0.0643074352     0.3157545729
Bq        -0.6747085148    -0.0495669799     0.6122284167
Bq        -0.6168047026    -0.0692209203     0.2169299584
Bq        -0.6891844679    -0.0446534948     0.7110530313
Bq        -0.6023287496    -0.0741344053     0.1181053438
Bq        -0.7036604209    -0.0397400098     0.8098776459
Bq        -0.5878527965    -0.0790478904     0.0192807292
Bq        -0.7181363739    -0.0348265247     0.9087022605
Bq        -0.5733768435    -0.0839613755    -0.0795438854
Bq        -0.6457566087    -0.0593939501     0.4145791875
Bq        -0.6595204278     0.0453987504     0.5085421973
Bq        -0.6305685217     0.0355717802     0.3108929682
Bq        -0.6739963809     0.0503122355     0.6073668119
Bq        -0.6160925687     0.0306582951     0.2120683536
Bq        -0.6884723339     0.0552257205     0.7061914265
Bq        -0.6016166157     0.0257448100     0.1132437390
Bq        -0.7029482870     0.0601392056     0.8050160411
Bq        -0.5871406626     0.0208313250     0.0144191244
Bq        -0.7174242400     0.0650526907     0.9038406557
Bq        -0.5726647096     0.0159178399    -0.0844054902
Bq        -0.6450444748     0.0404852653     0.4097175828
Bq        -0.6588082939     0.1452779658     0.5036805926
Bq        -0.6298563878     0.1354509956     0.3060313634
Bq        -0.6732842469     0.1501914508     0.6025052072
Bq        -0.6153804348     0.1305375105     0.2072067488
Bq        -0.6877602000     0.1551049359     0.7013298218
Bq        -0.6009044817     0.1256240254     0.1083821342
Bq        -0.7022361530     0.1600184210     0.8001544363
Bq        -0.5864285287     0.1207105403     0.0095575197
Bq        -0.7167121061     0.1649319061     0.8989790509
Bq        -0.5719525756     0.1157970553    -0.0892670949
Bq        -0.6443323408     0.1403644807     0.4048559780
Bq        -0.6580961599     0.2451571811     0.4988189878
Bq        -0.6291442539     0.2353302110     0.3011697586
Bq        -0.6725721130     0.2500706662     0.5976436024
Bq        -0.6146683008     0.2304167259     0.2023451441
Bq        -0.6870480660     0.2549841513     0.6964682170
Bq        -0.6001923478     0.2255032408     0.1035205295
Bq        -0.7015240191     0.2598976364     0.7952928316
Bq        -0.5857163947     0.2205897557     0.0046959149
Bq        -0.7159999721     0.2648111215     0.8941174462
Bq        -0.5712404417     0.2156762706    -0.0941286997
Bq        -0.6436202069     0.2402436960     0.3999943732
Bq        -0.6573840260     0.3450363965     0.4939573830
Bq        -0.6284321199     0.3352094263     0.2963081539
Bq        -0.6718599790     0.3499498816     0.5927819976
Bq        -0.6139561669     0.3302959413     0.1974835393
Bq        -0.6863359321     0.3548633667     0.6916066122
Bq        -0.5994802138     0.3253824562     0.0986589247
Bq        -0.7008118851     0.3597768518     0.7904312268
Bq        -0.5850042608     0.3204689711    -0.0001656899
Bq        -0.7152878382     0.3646903368     0.8892558414
Bq        -0.5705283077     0.3155554860    -0.0989903045
Bq        -0.6429080730     0.3401229114     0.3951327685
Bq        -0.6566718921     0.4449156119     0.4890957783
Bq        -0.6277199860     0.4350886417     0.2914465491
Bq        -0.6711478451     0.4498290970     0.5879203929
Bq        -0.6132440329     0.4301751566     0.1926219345
Bq        -0.6856237981     0.4547425820     0.6867450075
Bq        -0.5987680799     0.4252616716     0.0937973199
Bq        -0.7000997512     0.4596560671     0.7855696220
Bq        -0.5842921268     0.4203481865    -0.0050272946
Bq        -0.7145757042     0.4645695522     0.8843942366
Bq        -0.5698161738     0.4154347014    -0.1038519092
Bq        -0.6421959390     0.4400021268     0.3902711637
Bq        -0.6559597581     0.5447948273     0.4842341735
Bq        -0.6270078520     0.5349678571     0.2865849443
Bq        -0.6704357112     0.5497083123     0.5830587881
Bq        -0.6125318990     0.5300543720     0.1877603298
Bq        -0.6849116642     0.5546217974     0.6818834027
Bq        -0.5980559459     0.5251408869     0.0889357152
Bq        -0.6993876173     0.5595352825     0.7807080173
Bq        -0.5835799929     0.5202274018    -0.0098888994
Bq        -0.7138635703     0.5644487676     0.8795326319
Bq        -0.5691040399     0.5153139168    -0.1087135140
Bq        -0.6414838051     0.5398813422     0.3854095589
Bq        -0.6552476242     0.6446740426     0.4793725687
Bq        -0.6262957181     0.6348470725     0.2817233396
Bq        -0.6697235772     0.6495875277     0.5781971833
Bq        -0.6118197650     0.6299335874     0.1828987250
Bq        -0.6841995303     0.6545010128     0.6770217979
Bq        -0.5973438120     0.6250201023     0.0840741104
Bq        -0.6986754833     0.6594144979     0.7758464125

1
2
3
4
5
6
7
8
9
10
11
12
13
14
15
16
17
18
19
20
21
22
23
24
25
26
27
28
29
30
31
32
33
34
35
36
37
38
39
40
41
42
43
44
45
46
47
48
49
50
51
52
53
54
55
56
57
58
59
60
61
62
63
64
65
66
67
68
69
70
71
72
73
74
75
76
77
78
79
80
81
82
83
84
85
86
87
88
89
90
91
92
93
94
95
96
97
98
99
100
101
102
103
104
105
106
107
108
109
110
111
112
113
114
115
116
117
118
119
120
121
122
123
124
125
126
127
128
129
130
131
132
133
134
135
136
137
138
139
140
141
142
143
144
145
146
147
148
149
150
151
152
153
154
155
156
157
158
159
160
161
162
163
164
165
166
167
168
169
170
171
172
173
174
175
176
177
178
179
180
181
182
183
184
185
186
187
188
189
190
191
192
193
194
195
196
197
198
199
200
201
202
203
204
205
206
207
208
209
210
211
212
213
214
215
216
217
218
219
220
221
222
223
224
225
226
227
228
229
230
231
232
233
234
235
236

