%nproc=8
%mem=1000MB
# rb3lyp/6-311+g** NMR geom=connectivity

Title

0 1
C    -4.0500558   -0.5771862    0.8136712
H    -5.0263804   -1.0082727    1.0024760
C    -3.9381552    0.6617804    0.2400876
H    -4.8252424    1.2338890   -0.0111295
C    -2.6768410    1.2433246    0.0057578
C    -1.4974121    0.5051527    0.2848253
C    -1.6508332   -0.7338728    0.9404026
H    -0.7713646   -1.2730967    1.2633753
C    -2.8898548   -1.2624035    1.1994307
H    -2.9683706   -2.2124563    1.7152676
C    -2.5773185    2.5963696   -0.4192930
H    -3.4870728    3.1412239   -0.6474055
C    -1.3741895    3.2147896   -0.4364030
H    -1.2997315    4.2742019   -0.6578144
C    -0.1719488    2.4994090   -0.1734588
C    -0.2043917    1.1018437    0.0192689
C     1.0513491    3.2042560   -0.0676222
H     1.0427344    4.2819499   -0.1896997
C     2.1942091    2.5487446    0.2579577
H     3.1168527    3.0912848    0.4334727
C     2.2216473    1.1336562    0.2934990
C     1.0486931    0.3945528    0.0302412
C     3.4483363    0.4614633    0.5573939
H     4.3095794    1.0606054    0.8334846
C     3.5427346   -0.8855926    0.4749463
H     4.4731467   -1.3939704    0.7038822
C     2.4490052   -1.6474447   -0.0196319
C     1.2150704   -1.0057258   -0.3013573
C     0.2531113   -1.7434440   -1.0216591
H    -0.6541356   -1.2535051   -1.3462847
C     0.4494193   -3.0628597   -1.3413779
H    -0.3083162   -3.5944309   -1.9054060
C     1.6251726   -3.7207967   -0.9552541
H     1.7670048   -4.7687404   -1.1927019
C     2.6109872   -3.0144177   -0.3183050
H     3.5525612   -3.4902813   -0.0646367
Bq        -0.6748626112    -1.7708775077    -1.0950917629
Bq        -0.8741714302    -1.9039557632    -0.6562681393
Bq        -0.6350008474    -1.7442618566    -1.1828564876
Bq        -0.9140331939    -1.9305714143    -0.5685034146
Bq        -0.5951390836    -1.7176462055    -1.2706212123
Bq        -0.9538949577    -1.9571870654    -0.4807386899
Bq        -0.5552773199    -1.6910305543    -1.3583859370
Bq        -0.7545861388    -1.8241088099    -0.9195623134
Bq        -0.8054543760    -1.7543314783    -0.8075643383
Bq        -0.7257308484    -1.7011001761    -0.9830937877
Bq        -0.8453161397    -1.7809471294    -0.7197996135
Bq        -0.6858690846    -1.6744845250    -1.0708585124
Bq        -0.8851779035    -1.8075627805    -0.6320348888
Bq        -0.6460073208    -1.6478688739    -1.1586232371
Bq        -0.9250396673    -1.8341784316    -0.5442701641
Bq        -0.6061455570    -1.6212532227    -1.2463879618
Bq        -0.9649014311    -1.8607940827    -0.4565054394
Bq        -0.5662837932    -1.5946375716    -1.3341526865
Bq        -0.7655926122    -1.7277158272    -0.8953290630
Bq        -0.8164608493    -1.6579384956    -0.7833310878
Bq        -0.7367373217    -1.6047071934    -0.9588605372
Bq        -0.8563226131    -1.6845541467    -0.6955663631
Bq        -0.6968755580    -1.5780915422    -1.0466252619
Bq        -0.8961843769    -1.7111697978    -0.6078016384
Bq        -0.6570137942    -1.5514758911    -1.1343899866
Bq        -0.9360461407    -1.7377854489    -0.5200369137
Bq        -0.6171520304    -1.5248602400    -1.2221547114
Bq        -0.9759079045    -1.7644011000    -0.4322721889
Bq        -0.5772902666    -1.4982445889    -1.3099194361
Bq        -0.7765990855    -1.6313228445    -0.8710958125
Bq        -0.8274673227    -1.5615455129    -0.7590978373
Bq        -0.7477437951    -1.5083142106    -0.9346272868
Bq        -0.8673290865    -1.5881611640    -0.6713331126
Bq        -0.7078820313    -1.4816985595    -1.0223920115
Bq        -0.9071908503    -1.6147768151    -0.5835683879
Bq        -0.6680202675    -1.4550829084    -1.1101567362
Bq        -0.9470526141    -1.6413924662    -0.4958036632
Bq        -0.6281585038    -1.4284672573    -1.1979214609
Bq        -0.9869143778    -1.6680081173    -0.4080389385
Bq        -0.5882967400    -1.4018516062    -1.2856861856
Bq        -0.7876055589    -1.5349298617    -0.8468625621
Bq        -0.8384737961    -1.4651525301    -0.7348645869
Bq        -0.7587502685    -1.4119212279    -0.9103940363
Bq        -0.8783355599    -1.4917681812    -0.6470998622
Bq        -0.7188885047    -1.3853055768    -0.9981587610
Bq        -0.9181973236    -1.5183838324    -0.5593351375
Bq        -0.6790267409    -1.3586899257    -1.0859234857
Bq        -0.9580590874    -1.5449994835    -0.4715704127
Bq        -0.6391649771    -1.3320742746    -1.1736882104
Bq        -0.9979208512    -1.5716151346    -0.3838056880
Bq        -0.5993032133    -1.3054586235    -1.2614529352
Bq        -0.7986120323    -1.4385368790    -0.8226293116
Bq        -0.8494802694    -1.3687595474    -0.7106313364
Bq        -0.7697567419    -1.3155282452    -0.8861607858
Bq        -0.8893420332    -1.3953751985    -0.6228666117
Bq        -0.7298949781    -1.2889125941    -0.9739255106
Bq        -0.9292037970    -1.4219908496    -0.5351018870
Bq        -0.6900332143    -1.2622969430    -1.0616902353
Bq        -0.9690655608    -1.4486065008    -0.4473371623
Bq        -0.6501714505    -1.2356812919    -1.1494549600
Bq        -1.0089273246    -1.4752221519    -0.3595724376
Bq        -0.6103096867    -1.2090656408    -1.2372196847
Bq        -0.8096185057    -1.3421438963    -0.7983960611
Bq        -0.8604867428    -1.2723665647    -0.6863980860
Bq        -0.7807632152    -1.2191352625    -0.8619275354
Bq        -0.9003485066    -1.2989822158    -0.5986333613
Bq        -0.7409014515    -1.1925196114    -0.9496922601
Bq        -0.9402102704    -1.3255978669    -0.5108686365
Bq        -0.7010396877    -1.1659039603    -1.0374569848
Bq        -0.9800720342    -1.3522135180    -0.4231039118
Bq        -0.6611779239    -1.1392883092    -1.1252217095
Bq        -1.0199337980    -1.3788291691    -0.3353391871
Bq        -0.6213161601    -1.1126726581    -1.2129864342
Bq        -0.8206249790    -1.2457509136    -0.7741628107
Bq        -0.8714932162    -1.1759735820    -0.6621648355
Bq        -0.7917696886    -1.1227422798    -0.8376942849
Bq        -0.9113549800    -1.2025892331    -0.5744001108
Bq        -0.7519079248    -1.0961266287    -0.9254590096
Bq        -0.9512167438    -1.2292048842    -0.4866353861
Bq        -0.7120461610    -1.0695109776    -1.0132237344
Bq        -0.9910785075    -1.2558205353    -0.3988706614
Bq        -0.6721843972    -1.0428953265    -1.1009884591
Bq        -1.0309402713    -1.2824361864    -0.3111059367
Bq        -0.6323226335    -1.0162796754    -1.1887531838
Bq        -0.8316314524    -1.1493579309    -0.7499295602
Bq        -0.8824996896    -1.0795805993    -0.6379315850
Bq        -0.8027761620    -1.0263492971    -0.8134610345
Bq        -0.9223614533    -1.1061962504    -0.5501668603
Bq        -0.7629143982    -0.9997336460    -0.9012257592
Bq        -0.9622232171    -1.1328119015    -0.4624021356
Bq        -0.7230526344    -0.9731179949    -0.9889904839
Bq        -1.0020849809    -1.1594275526    -0.3746374109
Bq        -0.6831908706    -0.9465023438    -1.0767552086
Bq        -1.0419467447    -1.1860432037    -0.2868726862
Bq        -0.6433291068    -0.9198866927    -1.1645199333
Bq        -0.8426379258    -1.0529649482    -0.7256963098
Bq        -0.8935061629    -0.9831876166    -0.6136983346
Bq        -0.8137826354    -0.9299563144    -0.7892277840
Bq        -0.9333679267    -1.0098032677    -0.5259336099
Bq        -0.7739208716    -0.9033406633    -0.8769925087
Bq        -0.9732296905    -1.0364189188    -0.4381688852
Bq        -0.7340591078    -0.8767250122    -0.9647572334
Bq        -1.0130914543    -1.0630345699    -0.3504041605
Bq        -0.6941973440    -0.8501093610    -1.0525219582
Bq        -1.0529532181    -1.0896502210    -0.2626394357
Bq        -0.6543355802    -0.8234937099    -1.1402866829
Bq        -0.8536443991    -0.9565719655    -0.7014630593
Bq        -0.9045126363    -0.8867946339    -0.5894650841
Bq        -0.8247891087    -0.8335633317    -0.7649945336
Bq        -0.9443744001    -0.9134102850    -0.5017003594
Bq        -0.7849273449    -0.8069476805    -0.8527592583
Bq        -0.9842361639    -0.9400259361    -0.4139356347
Bq        -0.7450655812    -0.7803320294    -0.9405239830
Bq        -1.0240979277    -0.9666415872    -0.3261709100
Bq        -0.7052038174    -0.7537163783    -1.0282887077
Bq        -1.0639596915    -0.9932572383    -0.2384061853
Bq        -0.6653420536    -0.7271007272    -1.1160534324
Bq        -0.8646508725    -0.8601789828    -0.6772298088
Bq        -0.9155191097    -0.7904016512    -0.5652318337
Bq        -0.8357955821    -0.7371703489    -0.7407612831
Bq        -0.9553808735    -0.8170173023    -0.4774671090
Bq        -0.7959338183    -0.7105546978    -0.8285260078
Bq        -0.9952426372    -0.8436329534    -0.3897023842
Bq        -0.7560720545    -0.6839390467    -0.9162907325
Bq        -1.0351044010    -0.8702486045    -0.3019376595
Bq        -0.7162102907    -0.6573233956    -1.0040554572
Bq        -1.0749661648    -0.8968642556    -0.2141729348
Bq        -0.6763485269    -0.6307077445    -1.0918201820
Bq        -0.8756573459    -0.7637860000    -0.6529965584
Bq        -0.9265255830    -0.6940086684    -0.5409985832
Bq        -0.8468020555    -0.6407773662    -0.7165280326
Bq        -0.9663873468    -0.7206243196    -0.4532338585
Bq        -0.8069402917    -0.6141617151    -0.8042927574
Bq        -1.0062491106    -0.7472399707    -0.3654691338
Bq        -0.7670785279    -0.5875460640    -0.8920574821
Bq        -1.0461108744    -0.7738556218    -0.2777044091
Bq        -0.7272167641    -0.5609304129    -0.9798222068
Bq        -1.0859726382    -0.8004712729    -0.1899396844
Bq        -0.6873550003    -0.5343147618    -1.0675869315
Bq        -0.8866638193    -0.6673930173    -0.6287633079
Bq        -0.9375320564    -0.5976156857    -0.5167653328
Bq        -0.8578085288    -0.5443843835    -0.6922947822
Bq        -0.9773938202    -0.6242313368    -0.4290006080
Bq        -0.8179467651    -0.5177687324    -0.7800595069
Bq        -1.0172555840    -0.6508469879    -0.3412358833
Bq        -0.7780850013    -0.4911530813    -0.8678242316
Bq        -1.0571173478    -0.6774626391    -0.2534711586
Bq        -0.7382232375    -0.4645374302    -0.9555889563
Bq        -1.0969791116    -0.7040782902    -0.1657064339
Bq        -0.6983614737    -0.4379217791    -1.0433536810
Bq        -0.8976702926    -0.5710000346    -0.6045300575
Bq        -0.9485385298    -0.5012227030    -0.4925320823
Bq        -0.8688150022    -0.4479914008    -0.6680615317
Bq        -0.9884002936    -0.5278383541    -0.4047673576
Bq        -0.8289532384    -0.4213757497    -0.7558262564
Bq        -1.0282620574    -0.5544540052    -0.3170026329
Bq        -0.7890914746    -0.3947600986    -0.8435909812
Bq        -1.0681238212    -0.5810696563    -0.2292379082
Bq        -0.7492297109    -0.3681444475    -0.9313557059
Bq        -1.1079855849    -0.6076853074    -0.1414731835
Bq        -0.7093679471    -0.3415287964    -1.0191204306
Bq        -0.9086767660    -0.4746070519    -0.5802968070
Bq        -0.9595450032    -0.4048297203    -0.4682988318
Bq        -0.8798214756    -0.3515984181    -0.6438282813
Bq        -0.9994067669    -0.4314453714    -0.3805341071
Bq        -0.8399597118    -0.3249827670    -0.7315930060
Bq        -1.0392685307    -0.4580610225    -0.2927693824
Bq        -0.8000979480    -0.2983671159    -0.8193577307
Bq        -1.0791302945    -0.4846766736    -0.2050046577
Bq        -0.7602361842    -0.2717514648    -0.9071224554
Bq        -1.1189920583    -0.5112923247    -0.1172399330
Bq        -0.7203744204    -0.2451358137    -0.9948871801
Bq        -0.9196832394    -0.3782140692    -0.5560635566
Bq        -0.9705514765    -0.3084367376    -0.4440655814
Bq        -0.8908279490    -0.2552054354    -0.6195950308
Bq        -1.0104132403    -0.3350523887    -0.3563008567
Bq        -0.8509661852    -0.2285897843    -0.7073597555
Bq        -1.0502750041    -0.3616680398    -0.2685361320
Bq        -0.8111044214    -0.2019741332    -0.7951244802
Bq        -1.0901367679    -0.3882836909    -0.1807714072
Bq        -0.7712426576    -0.1753584821    -0.8828892049
Bq        -1.1299985317    -0.4148993420    -0.0930066825
Bq        -0.7313808938    -0.1487428310    -0.9706539297
Bq        -0.9306897127    -0.2818210865    -0.5318303061
Bq        -0.9815579499    -0.2120437549    -0.4198323309
Bq        -0.9018344223    -0.1588124527    -0.5953617804
Bq        -1.0214197137    -0.2386594060    -0.3320676062
Bq        -0.8619726585    -0.1321968016    -0.6831265051
Bq        -1.0612814775    -0.2652750571    -0.2443028815
Bq        -0.8221108948    -0.1055811505    -0.7708912298
Bq        -1.1011432413    -0.2918907082    -0.1565381568
Bq        -0.7822491310    -0.0789654993    -0.8586559545
Bq        -1.1410050051    -0.3185063593    -0.0687734321
Bq        -0.7423873672    -0.0523498482    -0.9464206792
Bq        -0.9416961861    -0.1854281038    -0.5075970556
Bq        -0.9925644233    -0.1156507722    -0.3955990805
Bq        -0.9128408957    -0.0624194700    -0.5711285299
Bq        -1.0324261871    -0.1422664233    -0.3078343558
Bq        -0.8729791319    -0.0358038189    -0.6588932546
Bq        -1.0722879509    -0.1688820744    -0.2200696310

1
2
3
4
5
6
7
8
9
10
11
12
13
14
15
16
17
18
19
20
21
22
23
24
25
26
27
28
29
30
31
32
33
34
35
36
37
38
39
40
41
42
43
44
45
46
47
48
49
50
51
52
53
54
55
56
57
58
59
60
61
62
63
64
65
66
67
68
69
70
71
72
73
74
75
76
77
78
79
80
81
82
83
84
85
86
87
88
89
90
91
92
93
94
95
96
97
98
99
100
101
102
103
104
105
106
107
108
109
110
111
112
113
114
115
116
117
118
119
120
121
122
123
124
125
126
127
128
129
130
131
132
133
134
135
136
137
138
139
140
141
142
143
144
145
146
147
148
149
150
151
152
153
154
155
156
157
158
159
160
161
162
163
164
165
166
167
168
169
170
171
172
173
174
175
176
177
178
179
180
181
182
183
184
185
186
187
188
189
190
191
192
193
194
195
196
197
198
199
200
201
202
203
204
205
206
207
208
209
210
211
212
213
214
215
216
217
218
219
220
221
222
223
224
225
226
227
228
229
230
231
232
233
234
235
236

