%nproc=8
%mem=1000MB
# rb3lyp/6-311+g** NMR geom=connectivity

Title

0 1
C    -4.0500558   -0.5771862    0.8136712
H    -5.0263804   -1.0082727    1.0024760
C    -3.9381552    0.6617804    0.2400876
H    -4.8252424    1.2338890   -0.0111295
C    -2.6768410    1.2433246    0.0057578
C    -1.4974121    0.5051527    0.2848253
C    -1.6508332   -0.7338728    0.9404026
H    -0.7713646   -1.2730967    1.2633753
C    -2.8898548   -1.2624035    1.1994307
H    -2.9683706   -2.2124563    1.7152676
C    -2.5773185    2.5963696   -0.4192930
H    -3.4870728    3.1412239   -0.6474055
C    -1.3741895    3.2147896   -0.4364030
H    -1.2997315    4.2742019   -0.6578144
C    -0.1719488    2.4994090   -0.1734588
C    -0.2043917    1.1018437    0.0192689
C     1.0513491    3.2042560   -0.0676222
H     1.0427344    4.2819499   -0.1896997
C     2.1942091    2.5487446    0.2579577
H     3.1168527    3.0912848    0.4334727
C     2.2216473    1.1336562    0.2934990
C     1.0486931    0.3945528    0.0302412
C     3.4483363    0.4614633    0.5573939
H     4.3095794    1.0606054    0.8334846
C     3.5427346   -0.8855926    0.4749463
H     4.4731467   -1.3939704    0.7038822
C     2.4490052   -1.6474447   -0.0196319
C     1.2150704   -1.0057258   -0.3013573
C     0.2531113   -1.7434440   -1.0216591
H    -0.6541356   -1.2535051   -1.3462847
C     0.4494193   -3.0628597   -1.3413779
H    -0.3083162   -3.5944309   -1.9054060
C     1.6251726   -3.7207967   -0.9552541
H     1.7670048   -4.7687404   -1.1927019
C     2.6109872   -3.0144177   -0.3183050
H     3.5525612   -3.4902813   -0.0646367
Bq         0.0634180850     0.8429086834     0.4031228178
Bq         0.0365242157     1.0147539051     1.0811684945
Bq         0.0672600664     0.8183593660     0.3062591497
Bq         0.0326822344     1.0393032224     1.1780321626
Bq         0.0711020477     0.7938100487     0.2093954817
Bq         0.0518921410     0.9165566355     0.6937138221
Bq         0.0490231139     1.0380457849     0.7660474608
Bq         0.0567070766     0.9889471501     0.5723201246
Bq         0.0451811326     1.0625951022     0.8629111289
Bq         0.0605490579     0.9643978327     0.4754564565
Bq         0.0413391513     1.0871444196     0.9597747970
Bq         0.0643910393     0.9398485154     0.3785927884
Bq         0.0374971700     1.1116937370     1.0566384650
Bq         0.0682330206     0.9152991980     0.2817291203
Bq         0.0336551886     1.1362430544     1.1535021331
Bq         0.0720750019     0.8907498806     0.1848654522
Bq         0.0528650953     1.0134964675     0.6691837927
Bq         0.0499960682     1.1349856168     0.7415174313
Bq         0.0576800308     1.0858869821     0.5477900952
Bq         0.0461540868     1.1595349342     0.8383810994
Bq         0.0615220122     1.0613376647     0.4509264271
Bq         0.0423121055     1.1840842516     0.9352447675
Bq         0.0653639935     1.0367883473     0.3540627590
Bq         0.0384701242     1.2086335689     1.0321084356
Bq         0.0692059748     1.0122390299     0.2571990909
Bq         0.0346281428     1.2331828863     1.1289721037
Bq         0.0730479561     0.9876897125     0.1603354228
Bq         0.0538380495     1.1104362994     0.6446537633
Bq         0.0509690224     1.2319254487     0.7169874019
Bq         0.0586529850     1.1828268140     0.5232600657
Bq         0.0471270411     1.2564747661     0.8138510700
Bq         0.0624949664     1.1582774966     0.4263963976
Bq         0.0432850597     1.2810240835     0.9107147381
Bq         0.0663369477     1.1337281792     0.3295327296
Bq         0.0394430784     1.3055734009     1.0075784062
Bq         0.0701789290     1.1091788619     0.2326690615
Bq         0.0356010971     1.3301227182     1.1044420743
Bq         0.0740209104     1.0846295445     0.1358053934
Bq         0.0548110037     1.2073761314     0.6201237338
Bq         0.0519419766     1.3288652807     0.6924573725
Bq         0.0596259393     1.2797666459     0.4987300363
Bq         0.0480999953     1.3534145981     0.7893210406
Bq         0.0634679206     1.2552173286     0.4018663682
Bq         0.0442580140     1.3779639154     0.8861847087
Bq         0.0673099019     1.2306680112     0.3050027001
Bq         0.0404160326     1.4025132328     0.9830483768
Bq         0.0711518833     1.2061186938     0.2081390320
Bq         0.0365740513     1.4270625502     1.0799120449
Bq         0.0749938646     1.1815693764     0.1112753640
Bq         0.0557839579     1.3043159633     0.5955937044
Bq         0.0529149308     1.4258051126     0.6679273431
Bq         0.0605988935     1.3767064779     0.4742000069
Bq         0.0490729495     1.4503544300     0.7647910112
Bq         0.0644408748     1.3521571605     0.3773363388
Bq         0.0452309682     1.4749037474     0.8616546792
Bq         0.0682828562     1.3276078431     0.2804726707
Bq         0.0413889869     1.4994530647     0.9585183473
Bq         0.0721248375     1.3030585257     0.1836090026
Bq         0.0375470055     1.5240023821     1.0553820154
Bq         0.0759668188     1.2785092084     0.0867453345
Bq         0.0567569122     1.4012557952     0.5710636750
Bq         0.0538878851     1.5227449446     0.6433973136
Bq         0.0615718477     1.4736463098     0.4496699775
Bq         0.0500459037     1.5472942619     0.7402609817
Bq         0.0654138291     1.4490969924     0.3528063094
Bq         0.0462039224     1.5718435793     0.8371246498
Bq         0.0692558104     1.4245476751     0.2559426413
Bq         0.0423619411     1.5963928967     0.9339883179
Bq         0.0730977917     1.3999983577     0.1590789732
Bq         0.0385199597     1.6209422141     1.0308519860
Bq         0.0769397730     1.3754490403     0.0622153051
Bq         0.0577298664     1.4981956272     0.5465336455
Bq         0.0548608393     1.6196847765     0.6188672842
Bq         0.0625448019     1.5705861417     0.4251399480
Bq         0.0510188580     1.6442340939     0.7157309523
Bq         0.0663867833     1.5460368244     0.3282762799
Bq         0.0471768766     1.6687834113     0.8125946204
Bq         0.0702287646     1.5214875070     0.2314126118
Bq         0.0433348953     1.6933327286     0.9094582885
Bq         0.0740707459     1.4969381896     0.1345489438
Bq         0.0394929140     1.7178820460     1.0063219566
Bq         0.0779127273     1.4723888722     0.0376852757
Bq         0.0587028206     1.5951354591     0.5220036161
Bq         0.0558337935     1.7166246084     0.5943372548
Bq         0.0635177562     1.6675259737     0.4006099186
Bq         0.0519918122     1.7411739258     0.6912009229
Bq         0.0673597375     1.6429766563     0.3037462505
Bq         0.0481498309     1.7657232432     0.7880645910
Bq         0.0712017188     1.6184273389     0.2068825824
Bq         0.0443078495     1.7902725606     0.8849282591
Bq         0.0750437002     1.5938780216     0.1100189143
Bq         0.0404658682     1.8148218779     0.9817919271
Bq         0.0788856815     1.5693287042     0.0131552462
Bq         0.0596757748     1.6920752911     0.4974735867
Bq         0.0568067477     1.8135644404     0.5698072254
Bq         0.0644907104     1.7644658056     0.3760798892
Bq         0.0529647664     1.8381137578     0.6666708934
Bq         0.0683326917     1.7399164882     0.2792162211
Bq         0.0491227851     1.8626630751     0.7635345615
Bq         0.0721746731     1.7153671709     0.1823525530
Bq         0.0452808037     1.8872123925     0.8603982296
Bq         0.0760166544     1.6908178535     0.0854888849
Bq         0.0414388224     1.9117617099     0.9572618977
Bq         0.0798586357     1.6662685361    -0.0113747832
Bq         0.0606487291     1.7890151230     0.4729435573
Bq         0.0577797020     1.9105042723     0.5452771959
Bq         0.0654636646     1.8614056376     0.3515498597
Bq         0.0539377206     1.9350535897     0.6421408640
Bq         0.0693056459     1.8368563202     0.2546861917
Bq         0.0500957393     1.9596029071     0.7390045321
Bq         0.0731476273     1.8123070028     0.1578225236
Bq         0.0462537580     1.9841522244     0.8358682002
Bq         0.0769896086     1.7877576854     0.0609588555
Bq         0.0424117766     2.0087015418     0.9327318683
Bq         0.0808315899     1.7632083681    -0.0359048126
Bq         0.0616216833     1.8859549549     0.4484135278
Bq         0.0587526562     2.0074441043     0.5207471665
Bq         0.0664366188     1.9583454695     0.3270198303
Bq         0.0549106749     2.0319934216     0.6176108346
Bq         0.0702786002     1.9337961521     0.2301561622
Bq         0.0510686935     2.0565427390     0.7144745027
Bq         0.0741205815     1.9092468348     0.1332924941
Bq         0.0472267122     2.0810920564     0.8113381708
Bq         0.0779625628     1.8846975174     0.0364288261
Bq         0.0433847309     2.1056413738     0.9082018389
Bq         0.0818045442     1.8601482000    -0.0604348420
Bq         0.0625946375     1.9828947869     0.4238834984
Bq         0.0597256104     2.1043839362     0.4962171371
Bq         0.0674095731     2.0552853014     0.3024898009
Bq         0.0558836291     2.1289332536     0.5930808052
Bq         0.0712515544     2.0307359841     0.2056261328
Bq         0.0520416478     2.1534825709     0.6899444733
Bq         0.0750935357     2.0061866667     0.1087624647
Bq         0.0481996664     2.1780318883     0.7868081413
Bq         0.0789355171     1.9816373493     0.0118987966
Bq         0.0443576851     2.2025812057     0.8836718094
Bq         0.0827774984     1.9570880319    -0.0849648715
Bq         0.0635675917     2.0798346188     0.3993534690
Bq         0.0606985646     2.2013237681     0.4716871076
Bq         0.0683825273     2.1522251334     0.2779597715
Bq         0.0568565833     2.2258730855     0.5685507757
Bq         0.0722245086     2.1276758160     0.1810961034
Bq         0.0530146020     2.2504224029     0.6654144438
Bq         0.0760664900     2.1031264986     0.0842324353
Bq         0.0491726206     2.2749717203     0.7622781119
Bq         0.0799084713     2.0785771813    -0.0126312328
Bq         0.0453306393     2.2995210376     0.8591417800
Bq         0.0837504526     2.0540278639    -0.1094949009
Bq         0.0645405460     2.1767744508     0.3748234396
Bq         0.0616715189     2.2982636001     0.4471570782
Bq         0.0693554815     2.2491649653     0.2534297420
Bq         0.0578295375     2.3228129174     0.5440207463
Bq         0.0731974628     2.2246156479     0.1565660739
Bq         0.0539875562     2.3473622348     0.6408844144
Bq         0.0770394442     2.2000663306     0.0597024059
Bq         0.0501455749     2.3719115522     0.7377480825
Bq         0.0808814255     2.1755170132    -0.0371612622
Bq         0.0463035935     2.3964608696     0.8346117506
Bq         0.0847234068     2.1509676958    -0.1340249303
Bq         0.0655135002     2.2737142827     0.3502934101
Bq         0.0626444731     2.3952034320     0.4226270488
Bq         0.0703284357     2.3461047973     0.2288997126
Bq         0.0588024918     2.4197527494     0.5194907169
Bq         0.0741704171     2.3215554799     0.1320360445
Bq         0.0549605104     2.4443020668     0.6163543850
Bq         0.0780123984     2.2970061625     0.0351723764
Bq         0.0511185291     2.4688513841     0.7132180531
Bq         0.0818543797     2.2724568451    -0.0616912917
Bq         0.0472765478     2.4934007015     0.8100817212
Bq         0.0856963611     2.2479075278    -0.1585549597
Bq         0.0664864544     2.3706541146     0.3257633807
Bq         0.0636174273     2.4921432640     0.3980970194
Bq         0.0713013900     2.4430446292     0.2043696832
Bq         0.0597754460     2.5166925813     0.4949606875
Bq         0.0751433713     2.4184953118     0.1075060151
Bq         0.0559334646     2.5412418987     0.5918243555
Bq         0.0789853526     2.3939459944     0.0106423470
Bq         0.0520914833     2.5657912161     0.6886880236
Bq         0.0828273340     2.3693966771    -0.0862213211
Bq         0.0482495020     2.5903405335     0.7855516917
Bq         0.0866693153     2.3448473597    -0.1830849892
Bq         0.0674594086     2.4675939466     0.3012333513
Bq         0.0645903815     2.5890830959     0.3735669899
Bq         0.0722743442     2.5399844611     0.1798396538
Bq         0.0607484002     2.6136324133     0.4704306580
Bq         0.0761163255     2.5154351438     0.0829759857
Bq         0.0569064189     2.6381817306     0.5672943261
Bq         0.0799583068     2.4908858264    -0.0138876824
Bq         0.0530644375     2.6627310480     0.6641579942
Bq         0.0838002882     2.4663365090    -0.1107513505
Bq         0.0492224562     2.6872803654     0.7610216623
Bq         0.0876422695     2.4417871916    -0.2076150186
Bq         0.0684323629     2.5645337785     0.2767033218
Bq         0.0655633358     2.6860229278     0.3490369605
Bq         0.0732472984     2.6369242931     0.1553096243
Bq         0.0617213544     2.7105722452     0.4459006286
Bq         0.0770892797     2.6123749757     0.0584459562
Bq         0.0578793731     2.7351215626     0.5427642967
Bq         0.0809312611     2.5878256583    -0.0384177118
Bq         0.0540373918     2.7596708800     0.6396279648

1
2
3
4
5
6
7
8
9
10
11
12
13
14
15
16
17
18
19
20
21
22
23
24
25
26
27
28
29
30
31
32
33
34
35
36
37
38
39
40
41
42
43
44
45
46
47
48
49
50
51
52
53
54
55
56
57
58
59
60
61
62
63
64
65
66
67
68
69
70
71
72
73
74
75
76
77
78
79
80
81
82
83
84
85
86
87
88
89
90
91
92
93
94
95
96
97
98
99
100
101
102
103
104
105
106
107
108
109
110
111
112
113
114
115
116
117
118
119
120
121
122
123
124
125
126
127
128
129
130
131
132
133
134
135
136
137
138
139
140
141
142
143
144
145
146
147
148
149
150
151
152
153
154
155
156
157
158
159
160
161
162
163
164
165
166
167
168
169
170
171
172
173
174
175
176
177
178
179
180
181
182
183
184
185
186
187
188
189
190
191
192
193
194
195
196
197
198
199
200
201
202
203
204
205
206
207
208
209
210
211
212
213
214
215
216
217
218
219
220
221
222
223
224
225
226
227
228
229
230
231
232
233
234
235
236

