%nproc=8
%mem=1000MB
# rb3lyp/6-311+g** NMR geom=connectivity

Title

0 1
C    -4.0500558   -0.5771862    0.8136712
H    -5.0263804   -1.0082727    1.0024760
C    -3.9381552    0.6617804    0.2400876
H    -4.8252424    1.2338890   -0.0111295
C    -2.6768410    1.2433246    0.0057578
C    -1.4974121    0.5051527    0.2848253
C    -1.6508332   -0.7338728    0.9404026
H    -0.7713646   -1.2730967    1.2633753
C    -2.8898548   -1.2624035    1.1994307
H    -2.9683706   -2.2124563    1.7152676
C    -2.5773185    2.5963696   -0.4192930
H    -3.4870728    3.1412239   -0.6474055
C    -1.3741895    3.2147896   -0.4364030
H    -1.2997315    4.2742019   -0.6578144
C    -0.1719488    2.4994090   -0.1734588
C    -0.2043917    1.1018437    0.0192689
C     1.0513491    3.2042560   -0.0676222
H     1.0427344    4.2819499   -0.1896997
C     2.1942091    2.5487446    0.2579577
H     3.1168527    3.0912848    0.4334727
C     2.2216473    1.1336562    0.2934990
C     1.0486931    0.3945528    0.0302412
C     3.4483363    0.4614633    0.5573939
H     4.3095794    1.0606054    0.8334846
C     3.5427346   -0.8855926    0.4749463
H     4.4731467   -1.3939704    0.7038822
C     2.4490052   -1.6474447   -0.0196319
C     1.2150704   -1.0057258   -0.3013573
C     0.2531113   -1.7434440   -1.0216591
H    -0.6541356   -1.2535051   -1.3462847
C     0.4494193   -3.0628597   -1.3413779
H    -0.3083162   -3.5944309   -1.9054060
C     1.6251726   -3.7207967   -0.9552541
H     1.7670048   -4.7687404   -1.1927019
C     2.6109872   -3.0144177   -0.3183050
H     3.5525612   -3.4902813   -0.0646367
Bq         2.5721776760     1.4584482209     1.2152377185
Bq         2.6879853003     1.4191403402     0.4246408019
Bq         2.5577017229     1.4633617060     1.3140623331
Bq         2.7024612534     1.4142268552     0.3258161873
Bq         2.6300814882     1.4387942806     0.8199392602
Bq         2.6163176691     1.5435869810     0.9139022700
Bq         2.6452695751     1.5337600109     0.7162530408
Bq         2.6018417160     1.5485004661     1.0127268846
Bq         2.6597455282     1.5288465258     0.6174284263
Bq         2.5873657630     1.5534139512     1.1115514992
Bq         2.6742214812     1.5239330407     0.5186038117
Bq         2.5728898099     1.5583274363     1.2103761138
Bq         2.6886974343     1.5190195556     0.4197791971
Bq         2.5584138569     1.5632409214     1.3092007283
Bq         2.7031733873     1.5141060705     0.3209545825
Bq         2.6307936221     1.5386734959     0.8150776554
Bq         2.6170298030     1.6434661964     0.9090406652
Bq         2.6459817091     1.6336392262     0.7113914361
Bq         2.6025538500     1.6483796815     1.0078652798
Bq         2.6604576621     1.6287257412     0.6125668215
Bq         2.5880778969     1.6532931666     1.1066898944
Bq         2.6749336152     1.6238122561     0.5137422069
Bq         2.5736019439     1.6582066517     1.2055145090
Bq         2.6894095682     1.6188987710     0.4149175923
Bq         2.5591259908     1.6631201367     1.3043391236
Bq         2.7038855213     1.6139852859     0.3160929777
Bq         2.6315057560     1.6385527113     0.8102160507
Bq         2.6177419369     1.7433454118     0.9041790605
Bq         2.6466938430     1.7335184416     0.7065298313
Bq         2.6032659839     1.7482588969     1.0030036751
Bq         2.6611697961     1.7286049565     0.6077052167
Bq         2.5887900309     1.7531723819     1.1018282896
Bq         2.6756457491     1.7236914715     0.5088806021
Bq         2.5743140778     1.7580858670     1.2006529042
Bq         2.6901217022     1.7187779864     0.4100559876
Bq         2.5598381248     1.7629993521     1.2994775188
Bq         2.7045976552     1.7138645013     0.3112313730
Bq         2.6322178900     1.7384319267     0.8053544459
Bq         2.6184540709     1.8432246272     0.8993174557
Bq         2.6474059770     1.8333976570     0.7016682265
Bq         2.6039781178     1.8481381122     0.9981420703
Bq         2.6618819300     1.8284841719     0.6028436120
Bq         2.5895021648     1.8530515973     1.0969666849
Bq         2.6763578831     1.8235706868     0.5040189974
Bq         2.5750262118     1.8579650824     1.1957912995
Bq         2.6908338361     1.8186572017     0.4051943828
Bq         2.5605502587     1.8628785675     1.2946159141
Bq         2.7053097891     1.8137437167     0.3063697682
Bq         2.6329300239     1.8383111421     0.8004928411
Bq         2.6191662048     1.9431038425     0.8944558509
Bq         2.6481181109     1.9332768724     0.6968066218
Bq         2.6046902518     1.9480173276     0.9932804655
Bq         2.6625940640     1.9283633873     0.5979820072
Bq         2.5902142987     1.9529308127     1.0921050801
Bq         2.6770700170     1.9234499022     0.4991573926
Bq         2.5757383457     1.9578442978     1.1909296947
Bq         2.6915459700     1.9185364171     0.4003327780
Bq         2.5612623926     1.9627577829     1.2897543093
Bq         2.7060219231     1.9136229320     0.3015081634
Bq         2.6336421579     1.9381903575     0.7956312364
Bq         2.6198783388     2.0429830579     0.8895942462
Bq         2.6488302449     2.0331560878     0.6919450170
Bq         2.6054023857     2.0478965430     0.9884188608
Bq         2.6633061979     2.0282426027     0.5931204024
Bq         2.5909264327     2.0528100281     1.0872434753
Bq         2.6777821509     2.0233291176     0.4942957878
Bq         2.5764504796     2.0577235132     1.1860680899
Bq         2.6922581040     2.0184156325     0.3954711733
Bq         2.5619745266     2.0626369982     1.2848927045
Bq         2.7067340570     2.0135021474     0.2966465587
Bq         2.6343542918     2.0380695728     0.7907696316
Bq         2.6205904727     2.1428622733     0.8847326414
Bq         2.6495423788     2.1330353031     0.6870834122
Bq         2.6061145197     2.1477757584     0.9835572560
Bq         2.6640183318     2.1281218180     0.5882587977
Bq         2.5916385666     2.1526892435     1.0823818706
Bq         2.6784942849     2.1232083330     0.4894341831
Bq         2.5771626136     2.1576027285     1.1812064852
Bq         2.6929702379     2.1182948479     0.3906095685
Bq         2.5626866605     2.1625162136     1.2800310998
Bq         2.7074461910     2.1133813628     0.2917849539
Bq         2.6350664258     2.1379487882     0.7859080268
Bq         2.6213026067     2.2427414887     0.8798710366
Bq         2.6502545127     2.2329145185     0.6822218075
Bq         2.6068266536     2.2476549738     0.9786956512
Bq         2.6647304658     2.2280010334     0.5833971929
Bq         2.5923507006     2.2525684588     1.0775202658
Bq         2.6792064188     2.2230875483     0.4845725783
Bq         2.5778747475     2.2574819439     1.1763448804
Bq         2.6936823719     2.2181740633     0.3857479637
Bq         2.5633987945     2.2623954290     1.2751694950
Bq         2.7081583249     2.2132605782     0.2869233491
Bq         2.6357785597     2.2378280036     0.7810464221
Bq         2.6220147406     2.3426207040     0.8750094319
Bq         2.6509666467     2.3327937339     0.6773602027
Bq         2.6075387875     2.3475341891     0.9738340465
Bq         2.6654425997     2.3278802488     0.5785355881
Bq         2.5930628345     2.3524476742     1.0726586610
Bq         2.6799185528     2.3229667637     0.4797109735
Bq         2.5785868815     2.3573611593     1.1714832756
Bq         2.6943945058     2.3180532786     0.3808863590
Bq         2.5641109284     2.3622746444     1.2703078902
Bq         2.7088704589     2.3131397936     0.2820617444
Bq         2.6364906936     2.3377072190     0.7761848173
Bq         2.6227268745     2.4424999194     0.8701478271
Bq         2.6516787806     2.4326729493     0.6724985979
Bq         2.6082509215     2.4474134045     0.9689724417
Bq         2.6661547337     2.4277594642     0.5736739834
Bq         2.5937749684     2.4523268896     1.0677970563
Bq         2.6806306867     2.4228459791     0.4748493688
Bq         2.5792990154     2.4572403747     1.1666216709
Bq         2.6951066398     2.4179324940     0.3760247542
Bq         2.5648230624     2.4621538598     1.2654462855
Bq         2.7095825928     2.4130190089     0.2772001396
Bq         2.6372028276     2.4375864343     0.7713232125
Bq         2.6234390085     2.5423791348     0.8652862223
Bq         2.6523909146     2.5325521646     0.6676369932
Bq         2.6089630554     2.5472926199     0.9641108369
Bq         2.6668668676     2.5276386796     0.5688123786
Bq         2.5944871024     2.5522061050     1.0629354515
Bq         2.6813428207     2.5227251945     0.4699877640
Bq         2.5800111493     2.5571195900     1.1617600661
Bq         2.6958187737     2.5178117094     0.3711631494
Bq         2.5655351963     2.5620330751     1.2605846807
Bq         2.7102947267     2.5128982243     0.2723385348
Bq         2.6379149615     2.5374656497     0.7664616078
Bq         2.6241511424     2.6422583502     0.8604246176
Bq         2.6531030485     2.6324313800     0.6627753884
Bq         2.6096751894     2.6471718353     0.9592492322
Bq         2.6675790016     2.6275178949     0.5639507738
Bq         2.5951992363     2.6520853203     1.0580738467
Bq         2.6820549546     2.6226044098     0.4651261592
Bq         2.5807232833     2.6569988054     1.1568984613
Bq         2.6965309076     2.6176909248     0.3663015447
Bq         2.5662473302     2.6619122905     1.2557230759
Bq         2.7110068607     2.6127774397     0.2674769301
Bq         2.6386270955     2.6373448651     0.7616000030
Bq         2.6248632764     2.7421375656     0.8555630128
Bq         2.6538151824     2.7323105954     0.6579137836
Bq         2.6103873233     2.7470510506     0.9543876274
Bq         2.6682911355     2.7273971103     0.5590891691
Bq         2.5959113703     2.7519645357     1.0532122420
Bq         2.6827670885     2.7224836252     0.4602645545
Bq         2.5814354172     2.7568780208     1.1520368566
Bq         2.6972430416     2.7175701401     0.3614399399
Bq         2.5669594642     2.7617915059     1.2508614712
Bq         2.7117189946     2.7126566551     0.2626153253
Bq         2.6393392294     2.7372240805     0.7567383982
Bq         2.6255754103     2.8420167809     0.8507014080
Bq         2.6545273164     2.8321898108     0.6530521789
Bq         2.6110994573     2.8469302660     0.9495260226
Bq         2.6690032694     2.8272763257     0.5542275643
Bq         2.5966235042     2.8518437511     1.0483506372
Bq         2.6834792225     2.8223628406     0.4554029497
Bq         2.5821475512     2.8567572362     1.1471752518
Bq         2.6979551755     2.8174493555     0.3565783351
Bq         2.5676715981     2.8616707213     1.2459998664
Bq         2.7124311286     2.8125358704     0.2577537205
Bq         2.6400513633     2.8371032959     0.7518767935
Bq         2.6262875442     2.9418959963     0.8458398033
Bq         2.6552394503     2.9320690261     0.6481905741
Bq         2.6118115912     2.9468094814     0.9446644179
Bq         2.6697154034     2.9271555411     0.5493659595
Bq         2.5973356382     2.9517229665     1.0434890325
Bq         2.6841913564     2.9222420560     0.4505413449
Bq         2.5828596851     2.9566364516     1.1423136470
Bq         2.6986673095     2.9173285709     0.3517167304
Bq         2.5683837321     2.9615499366     1.2411382616
Bq         2.7131432625     2.9124150858     0.2528921158
Bq         2.6407634973     2.9369825112     0.7470151887
Bq         2.6269996782     3.0417752117     0.8409781985
Bq         2.6559515843     3.0319482415     0.6433289693
Bq         2.6125237251     3.0466886968     0.9398028131
Bq         2.6704275373     3.0270347564     0.5445043548
Bq         2.5980477721     3.0516021819     1.0386274277
Bq         2.6849034904     3.0221212714     0.4456797402
Bq         2.5835718191     3.0565156669     1.1374520423
Bq         2.6993794434     3.0172077863     0.3468551256
Bq         2.5690958660     3.0614291520     1.2362766569
Bq         2.7138553964     3.0122943012     0.2480305110
Bq         2.6414756312     3.0368617266     0.7421535839
Bq         2.6277118121     3.1416544271     0.8361165937
Bq         2.6566637182     3.1318274569     0.6384673646
Bq         2.6132358591     3.1465679121     0.9349412083
Bq         2.6711396713     3.1269139718     0.5396427500
Bq         2.5987599060     3.1514813972     1.0337658229
Bq         2.6856156243     3.1220004867     0.4408181354
Bq         2.5842839530     3.1563948823     1.1325904375
Bq         2.7000915773     3.1170870017     0.3419935208
Bq         2.5698079999     3.1613083674     1.2314150521
Bq         2.7145675304     3.1121735166     0.2431689062
Bq         2.6421877652     3.1367409420     0.7372919792
Bq         2.6284239461     3.2415336424     0.8312549890
Bq         2.6573758522     3.2317066723     0.6336057598
Bq         2.6139479930     3.2464471275     0.9300796036
Bq         2.6718518052     3.2267931872     0.5347811452
Bq         2.5994720400     3.2513606126     1.0289042182
Bq         2.6863277582     3.2218797021     0.4359565306
Bq         2.5849960869     3.2562740977     1.1277288327
Bq         2.7008037113     3.2169662170     0.3371319161

1
2
3
4
5
6
7
8
9
10
11
12
13
14
15
16
17
18
19
20
21
22
23
24
25
26
27
28
29
30
31
32
33
34
35
36
37
38
39
40
41
42
43
44
45
46
47
48
49
50
51
52
53
54
55
56
57
58
59
60
61
62
63
64
65
66
67
68
69
70
71
72
73
74
75
76
77
78
79
80
81
82
83
84
85
86
87
88
89
90
91
92
93
94
95
96
97
98
99
100
101
102
103
104
105
106
107
108
109
110
111
112
113
114
115
116
117
118
119
120
121
122
123
124
125
126
127
128
129
130
131
132
133
134
135
136
137
138
139
140
141
142
143
144
145
146
147
148
149
150
151
152
153
154
155
156
157
158
159
160
161
162
163
164
165
166
167
168
169
170
171
172
173
174
175
176
177
178
179
180
181
182
183
184
185
186
187
188
189
190
191
192
193
194
195
196
197
198
199
200
201
202
203
204
205
206
207
208
209
210
211
212
213
214
215
216
217
218
219
220
221
222
223
224
225
226
227
228
229
230
231
232
233
234
235
236

