%nproc=8
%mem=1000MB
# rb3lyp/6-311+g** NMR geom=connectivity

Title

0 1
C    -4.0500558   -0.5771862    0.8136712
H    -5.0263804   -1.0082727    1.0024760
C    -3.9381552    0.6617804    0.2400876
H    -4.8252424    1.2338890   -0.0111295
C    -2.6768410    1.2433246    0.0057578
C    -1.4974121    0.5051527    0.2848253
C    -1.6508332   -0.7338728    0.9404026
H    -0.7713646   -1.2730967    1.2633753
C    -2.8898548   -1.2624035    1.1994307
H    -2.9683706   -2.2124563    1.7152676
C    -2.5773185    2.5963696   -0.4192930
H    -3.4870728    3.1412239   -0.6474055
C    -1.3741895    3.2147896   -0.4364030
H    -1.2997315    4.2742019   -0.6578144
C    -0.1719488    2.4994090   -0.1734588
C    -0.2043917    1.1018437    0.0192689
C     1.0513491    3.2042560   -0.0676222
H     1.0427344    4.2819499   -0.1896997
C     2.1942091    2.5487446    0.2579577
H     3.1168527    3.0912848    0.4334727
C     2.2216473    1.1336562    0.2934990
C     1.0486931    0.3945528    0.0302412
C     3.4483363    0.4614633    0.5573939
H     4.3095794    1.0606054    0.8334846
C     3.5427346   -0.8855926    0.4749463
H     4.4731467   -1.3939704    0.7038822
C     2.4490052   -1.6474447   -0.0196319
C     1.2150704   -1.0057258   -0.3013573
C     0.2531113   -1.7434440   -1.0216591
H    -0.6541356   -1.2535051   -1.3462847
C     0.4494193   -3.0628597   -1.3413779
H    -0.3083162   -3.5944309   -1.9054060
C     1.6251726   -3.7207967   -0.9552541
H     1.7670048   -4.7687404   -1.1927019
C     2.6109872   -3.0144177   -0.3183050
H     3.5525612   -3.4902813   -0.0646367
Bq        -3.2686666686     0.2392352495     1.1466210224
Bq        -3.2379308179     0.0428407105     0.3717116777
Bq        -3.2725086499     0.2637845669     1.2434846905
Bq        -3.2340888366     0.0182913932     0.2748480096
Bq        -3.2532987432     0.1410379800     0.7591663500
Bq        -3.2561677703     0.2625271294     0.8314999887
Bq        -3.2484838077     0.2134284946     0.6377726525
Bq        -3.2600097517     0.2870764467     0.9283636568
Bq        -3.2446418264     0.1888791772     0.5409089844
Bq        -3.2638517330     0.3116257641     1.0252273249
Bq        -3.2407998450     0.1643298598     0.4440453163
Bq        -3.2676937143     0.3361750815     1.1220909929
Bq        -3.2369578637     0.1397805425     0.3471816482
Bq        -3.2715356957     0.3607243989     1.2189546610
Bq        -3.2331158824     0.1152312251     0.2503179801
Bq        -3.2523257890     0.2379778120     0.7346363206
Bq        -3.2551948161     0.3594669613     0.8069699592
Bq        -3.2475108535     0.3103683265     0.6132426231
Bq        -3.2590367974     0.3840162787     0.9038336273
Bq        -3.2436688721     0.2858190092     0.5163789550
Bq        -3.2628787788     0.4085655960     1.0006972954
Bq        -3.2398268908     0.2612696918     0.4195152869
Bq        -3.2667207601     0.4331149134     1.0975609635
Bq        -3.2359849095     0.2367203744     0.3226516188
Bq        -3.2705627414     0.4576642308     1.1944246316
Bq        -3.2321429281     0.2121710570     0.2257879507
Bq        -3.2513528348     0.3349176439     0.7101062912
Bq        -3.2542218619     0.4564067932     0.7824399298
Bq        -3.2465378992     0.4073081585     0.5887125936
Bq        -3.2580638432     0.4809561106     0.8793035979
Bq        -3.2426959179     0.3827588411     0.4918489256
Bq        -3.2619058246     0.5055054280     0.9761672660
Bq        -3.2388539366     0.3582095237     0.3949852575
Bq        -3.2657478059     0.5300547454     1.0730309341
Bq        -3.2350119552     0.3336602064     0.2981215894
Bq        -3.2695897872     0.5546040627     1.1698946022
Bq        -3.2311699739     0.3091108890     0.2012579213
Bq        -3.2503798806     0.4318574759     0.6855762617
Bq        -3.2532489077     0.5533466252     0.7579099004
Bq        -3.2455649450     0.5042479904     0.5641825642
Bq        -3.2570908890     0.5778959425     0.8547735685
Bq        -3.2417229637     0.4796986730     0.4673188961
Bq        -3.2609328703     0.6024452599     0.9516372366
Bq        -3.2378809824     0.4551493557     0.3704552280
Bq        -3.2647748517     0.6269945773     1.0485009047
Bq        -3.2340390010     0.4306000383     0.2735915599
Bq        -3.2686168330     0.6515438947     1.1453645728
Bq        -3.2301970197     0.4060507209     0.1767278919
Bq        -3.2494069263     0.5287973078     0.6610462323
Bq        -3.2522759534     0.6502864571     0.7333798710
Bq        -3.2445919908     0.6011878224     0.5396525348
Bq        -3.2561179348     0.6748357745     0.8302435391
Bq        -3.2407500095     0.5766385050     0.4427888667
Bq        -3.2599599161     0.6993850919     0.9271072071
Bq        -3.2369080281     0.5520891876     0.3459251986
Bq        -3.2638018974     0.7239344092     1.0239708752
Bq        -3.2330660468     0.5275398702     0.2490615305
Bq        -3.2676438788     0.7484837266     1.1208345433
Bq        -3.2292240655     0.5029905529     0.1521978624
Bq        -3.2484339721     0.6257371397     0.6365162029
Bq        -3.2513029992     0.7472262890     0.7088498415
Bq        -3.2436190366     0.6981276543     0.5151225054
Bq        -3.2551449805     0.7717756064     0.8057135096
Bq        -3.2397770552     0.6735783369     0.4182588373
Bq        -3.2589869619     0.7963249238     0.9025771777
Bq        -3.2359350739     0.6490290195     0.3213951692
Bq        -3.2628289432     0.8208742412     0.9994408458
Bq        -3.2320930926     0.6244797022     0.2245315011
Bq        -3.2666709245     0.8454235585     1.0963045139
Bq        -3.2282511112     0.5999303848     0.1276678330
Bq        -3.2474610179     0.7226769717     0.6119861734
Bq        -3.2503300450     0.8441661210     0.6843198121
Bq        -3.2426460823     0.7950674862     0.4905924759
Bq        -3.2541720263     0.8687154384     0.7811834802
Bq        -3.2388041010     0.7705181689     0.3937288078
Bq        -3.2580140077     0.8932647557     0.8780471483
Bq        -3.2349621197     0.7459688515     0.2968651398
Bq        -3.2618559890     0.9178140731     0.9749108164
Bq        -3.2311201383     0.7214195341     0.2000014717
Bq        -3.2656979703     0.9423633905     1.0717744845
Bq        -3.2272781570     0.6968702167     0.1031378036
Bq        -3.2464880637     0.8196168036     0.5874561440
Bq        -3.2493570908     0.9411059529     0.6597897827
Bq        -3.2416731281     0.8920073182     0.4660624465
Bq        -3.2531990721     0.9656552703     0.7566534508
Bq        -3.2378311468     0.8674580008     0.3691987784
Bq        -3.2570410534     0.9902045877     0.8535171189
Bq        -3.2339891655     0.8429086834     0.2723351103
Bq        -3.2608830348     1.0147539051     0.9503807870
Bq        -3.2301471841     0.8183593660     0.1754714422
Bq        -3.2647250161     1.0393032224     1.0472444550
Bq        -3.2263052028     0.7938100487     0.0786077741
Bq        -3.2455151094     0.9165566355     0.5629261146
Bq        -3.2483841365     1.0380457849     0.6352597533
Bq        -3.2407001739     0.9889471501     0.4415324171
Bq        -3.2522261179     1.0625951022     0.7321234213
Bq        -3.2368581926     0.9643978327     0.3446687490
Bq        -3.2560680992     1.0871444196     0.8289870894
Bq        -3.2330162112     0.9398485154     0.2478050809
Bq        -3.2599100805     1.1116937370     0.9258507575
Bq        -3.2291742299     0.9152991980     0.1509414128
Bq        -3.2637520619     1.1362430544     1.0227144256
Bq        -3.2253322486     0.8907498806     0.0540777447
Bq        -3.2445421552     1.0134964675     0.5383960852
Bq        -3.2474111823     1.1349856168     0.6107297238
Bq        -3.2397272197     1.0858869821     0.4170023877
Bq        -3.2512531636     1.1595349342     0.7075933919
Bq        -3.2358852383     1.0613376647     0.3201387196
Bq        -3.2550951450     1.1840842516     0.8044570600
Bq        -3.2320432570     1.0367883473     0.2232750515
Bq        -3.2589371263     1.2086335689     0.9013207281
Bq        -3.2282012757     1.0122390299     0.1264113834
Bq        -3.2627791076     1.2331828863     0.9981843962
Bq        -3.2243592943     0.9876897125     0.0295477153
Bq        -3.2435692010     1.1104362994     0.5138660557
Bq        -3.2464382281     1.2319254487     0.5861996944
Bq        -3.2387542654     1.1828268140     0.3924723582
Bq        -3.2502802094     1.2564747661     0.6830633625
Bq        -3.2349122841     1.1582774966     0.2956086901
Bq        -3.2541221908     1.2810240835     0.7799270306
Bq        -3.2310703028     1.1337281792     0.1987450220
Bq        -3.2579641721     1.3055734009     0.8767906987
Bq        -3.2272283215     1.1091788619     0.1018813540
Bq        -3.2618061534     1.3301227182     0.9736543668
Bq        -3.2233863401     1.0846295445     0.0050176859
Bq        -3.2425962468     1.2073761314     0.4893360263
Bq        -3.2454652739     1.3288652807     0.5616696650
Bq        -3.2377813112     1.2797666459     0.3679423288
Bq        -3.2493072552     1.3534145981     0.6585333331
Bq        -3.2339393299     1.2552173286     0.2710786607
Bq        -3.2531492365     1.3779639154     0.7553970012
Bq        -3.2300973486     1.2306680112     0.1742149926
Bq        -3.2569912179     1.4025132328     0.8522606692
Bq        -3.2262553672     1.2061186938     0.0773513245
Bq        -3.2608331992     1.4270625502     0.9491243373
Bq        -3.2224133859     1.1815693764    -0.0195123436
Bq        -3.2416232925     1.3043159633     0.4648059969
Bq        -3.2444923196     1.4258051126     0.5371396355
Bq        -3.2368083570     1.3767064779     0.3434122994
Bq        -3.2483343010     1.4503544300     0.6340033036
Bq        -3.2329663757     1.3521571605     0.2465486313
Bq        -3.2521762823     1.4749037474     0.7308669717
Bq        -3.2291243943     1.3276078431     0.1496849632
Bq        -3.2560182636     1.4994530647     0.8277306398
Bq        -3.2252824130     1.3030585257     0.0528212951
Bq        -3.2598602450     1.5240023821     0.9245943079
Bq        -3.2214404317     1.2785092084    -0.0440423730
Bq        -3.2406503383     1.4012557952     0.4402759675
Bq        -3.2435193654     1.5227449446     0.5126096061
Bq        -3.2358354028     1.4736463098     0.3188822699
Bq        -3.2473613468     1.5472942619     0.6094732742
Bq        -3.2319934214     1.4490969924     0.2220186019
Bq        -3.2512033281     1.5718435793     0.7063369423
Bq        -3.2281514401     1.4245476751     0.1251549338
Bq        -3.2550453094     1.5963928967     0.8032006104
Bq        -3.2243094588     1.3999983577     0.0282912657
Bq        -3.2588872907     1.6209422141     0.9000642785
Bq        -3.2204674774     1.3754490403    -0.0685724024
Bq        -3.2396773841     1.4981956272     0.4157459380
Bq        -3.2425464112     1.6196847765     0.4880795767
Bq        -3.2348624485     1.5705861417     0.2943522405
Bq        -3.2463883925     1.6442340939     0.5849432448
Bq        -3.2310204672     1.5460368244     0.1974885724
Bq        -3.2502303739     1.6687834113     0.6818069129
Bq        -3.2271784859     1.5214875070     0.1006249043
Bq        -3.2540723552     1.6933327286     0.7786705810
Bq        -3.2233365046     1.4969381896     0.0037612362
Bq        -3.2579143365     1.7178820460     0.8755342491
Bq        -3.2194945232     1.4723888722    -0.0931024318
Bq        -3.2387044299     1.5951354591     0.3912159086
Bq        -3.2415734570     1.7166246084     0.4635495473
Bq        -3.2338894943     1.6675259737     0.2698222111
Bq        -3.2454154383     1.7411739258     0.5604132154
Bq        -3.2300475130     1.6429766563     0.1729585430
Bq        -3.2492574196     1.7657232432     0.6572768834
Bq        -3.2262055317     1.6184273389     0.0760948749
Bq        -3.2530994010     1.7902725606     0.7541405515
Bq        -3.2223635503     1.5938780216    -0.0207687932
Bq        -3.2569413823     1.8148218779     0.8510042196
Bq        -3.2185215690     1.5693287042    -0.1176324613
Bq        -3.2377314756     1.6920752911     0.3666858792
Bq        -3.2406005027     1.8135644404     0.4390195178
Bq        -3.2329165401     1.7644658056     0.2452921817
Bq        -3.2444424841     1.8381137578     0.5358831859
Bq        -3.2290745588     1.7399164882     0.1484285136
Bq        -3.2482844654     1.8626630751     0.6327468540
Bq        -3.2252325774     1.7153671709     0.0515648455
Bq        -3.2521264467     1.8872123925     0.7296105221
Bq        -3.2213905961     1.6908178535    -0.0452988226
Bq        -3.2559684281     1.9117617099     0.8264741902
Bq        -3.2175486148     1.6662685361    -0.1421624907
Bq        -3.2367585214     1.7890151230     0.3421558498
Bq        -3.2396275485     1.9105042723     0.4144894884
Bq        -3.2319435859     1.8614056376     0.2207621522
Bq        -3.2434695299     1.9350535897     0.5113531565
Bq        -3.2281016045     1.8368563202     0.1238984841
Bq        -3.2473115112     1.9596029071     0.6082168246
Bq        -3.2242596232     1.8123070028     0.0270348161
Bq        -3.2511534925     1.9841522244     0.7050804927
Bq        -3.2204176419     1.7877576854    -0.0698288520

1
2
3
4
5
6
7
8
9
10
11
12
13
14
15
16
17
18
19
20
21
22
23
24
25
26
27
28
29
30
31
32
33
34
35
36
37
38
39
40
41
42
43
44
45
46
47
48
49
50
51
52
53
54
55
56
57
58
59
60
61
62
63
64
65
66
67
68
69
70
71
72
73
74
75
76
77
78
79
80
81
82
83
84
85
86
87
88
89
90
91
92
93
94
95
96
97
98
99
100
101
102
103
104
105
106
107
108
109
110
111
112
113
114
115
116
117
118
119
120
121
122
123
124
125
126
127
128
129
130
131
132
133
134
135
136
137
138
139
140
141
142
143
144
145
146
147
148
149
150
151
152
153
154
155
156
157
158
159
160
161
162
163
164
165
166
167
168
169
170
171
172
173
174
175
176
177
178
179
180
181
182
183
184
185
186
187
188
189
190
191
192
193
194
195
196
197
198
199
200
201
202
203
204
205
206
207
208
209
210
211
212
213
214
215
216
217
218
219
220
221
222
223
224
225
226
227
228
229
230
231
232
233
234
235
236

