%nproc=8
%mem=1000MB
# rb3lyp/6-311+g** NMR geom=connectivity

Title

0 1
C    -4.0500558   -0.5771862    0.8136712
H    -5.0263804   -1.0082727    1.0024760
C    -3.9381552    0.6617804    0.2400876
H    -4.8252424    1.2338890   -0.0111295
C    -2.6768410    1.2433246    0.0057578
C    -1.4974121    0.5051527    0.2848253
C    -1.6508332   -0.7338728    0.9404026
H    -0.7713646   -1.2730967    1.2633753
C    -2.8898548   -1.2624035    1.1994307
H    -2.9683706   -2.2124563    1.7152676
C    -2.5773185    2.5963696   -0.4192930
H    -3.4870728    3.1412239   -0.6474055
C    -1.3741895    3.2147896   -0.4364030
H    -1.2997315    4.2742019   -0.6578144
C    -0.1719488    2.4994090   -0.1734588
C    -0.2043917    1.1018437    0.0192689
C     1.0513491    3.2042560   -0.0676222
H     1.0427344    4.2819499   -0.1896997
C     2.1942091    2.5487446    0.2579577
H     3.1168527    3.0912848    0.4334727
C     2.2216473    1.1336562    0.2934990
C     1.0486931    0.3945528    0.0302412
C     3.4483363    0.4614633    0.5573939
H     4.3095794    1.0606054    0.8334846
C     3.5427346   -0.8855926    0.4749463
H     4.4731467   -1.3939704    0.7038822
C     2.4490052   -1.6474447   -0.0196319
C     1.2150704   -1.0057258   -0.3013573
C     0.2531113   -1.7434440   -1.0216591
H    -0.6541356   -1.2535051   -1.3462847
C     0.4494193   -3.0628597   -1.3413779
H    -0.3083162   -3.5944309   -1.9054060
C     1.6251726   -3.7207967   -0.9552541
H     1.7670048   -4.7687404   -1.1927019
C     2.6109872   -3.0144177   -0.3183050
H     3.5525612   -3.4902813   -0.0646367
Bq         0.2249385209    -1.6313228445    -0.4162085486
Bq         0.1740702838    -1.5615455129    -0.3042105734
Bq         0.2537938113    -1.5083142106    -0.4797400229
Bq         0.1342085200    -1.5881611640    -0.2164458487
Bq         0.2936555751    -1.4816985595    -0.5675047476
Bq         0.0943467562    -1.6147768151    -0.1286811240
Bq         0.3335173389    -1.4550829084    -0.6552694723
Bq         0.0544849924    -1.6413924662    -0.0409163993
Bq         0.3733791027    -1.4284672573    -0.7430341970
Bq         0.0146232286    -1.6680081173     0.0468483254
Bq         0.4132408665    -1.4018516062    -0.8307989217
Bq         0.2139320475    -1.5349298617    -0.3919752981
Bq         0.1630638104    -1.4651525301    -0.2799773230
Bq         0.2427873380    -1.4119212279    -0.4555067724
Bq         0.1232020466    -1.4917681812    -0.1922125983
Bq         0.2826491017    -1.3853055768    -0.5432714971
Bq         0.0833402828    -1.5183838324    -0.1044478735
Bq         0.3225108655    -1.3586899257    -0.6310362218
Bq         0.0434785190    -1.5449994835    -0.0166831488
Bq         0.3623726293    -1.3320742746    -0.7188009465
Bq         0.0036167552    -1.5716151346     0.0710815759
Bq         0.4022343931    -1.3054586235    -0.8065656712
Bq         0.2029255742    -1.4385368790    -0.3677420477
Bq         0.1520573370    -1.3687595474    -0.2557440725
Bq         0.2317808646    -1.3155282452    -0.4312735219
Bq         0.1121955732    -1.3953751985    -0.1679793478
Bq         0.2716426284    -1.2889125941    -0.5190382466
Bq         0.0723338094    -1.4219908496    -0.0802146231
Bq         0.3115043922    -1.2622969430    -0.6068029714
Bq         0.0324720456    -1.4486065008     0.0075501016
Bq         0.3513661559    -1.2356812919    -0.6945676961
Bq        -0.0073897181    -1.4752221519     0.0953148263
Bq         0.3912279197    -1.2090656408    -0.7823324208
Bq         0.1919191008    -1.3421438963    -0.3435087972
Bq         0.1410508636    -1.2723665647    -0.2315108221
Bq         0.2207743912    -1.2191352625    -0.4070402715
Bq         0.1011890998    -1.2989822158    -0.1437460973
Bq         0.2606361550    -1.1925196114    -0.4948049962
Bq         0.0613273361    -1.3255978669    -0.0559813726
Bq         0.3004979188    -1.1659039603    -0.5825697209
Bq         0.0214655723    -1.3522135180     0.0317833521
Bq         0.3403596826    -1.1392883092    -0.6703344456
Bq        -0.0183961915    -1.3788291691     0.1195480768
Bq         0.3802214464    -1.1126726581    -0.7580991703
Bq         0.1809126274    -1.2457509136    -0.3192755468
Bq         0.1300443903    -1.1759735820    -0.2072775716
Bq         0.2097679178    -1.1227422798    -0.3828070210
Bq         0.0901826265    -1.2025892331    -0.1195128469
Bq         0.2496296816    -1.0961266287    -0.4705717457
Bq         0.0503208627    -1.2292048842    -0.0317481222
Bq         0.2894914454    -1.0695109776    -0.5583364704
Bq         0.0104590989    -1.2558205353     0.0560166025
Bq         0.3293532092    -1.0428953265    -0.6461011952
Bq        -0.0294026649    -1.2824361864     0.1437813273
Bq         0.3692149730    -1.0162796754    -0.7338659199
Bq         0.1699061541    -1.1493579309    -0.2950422963
Bq         0.1190379169    -1.0795805993    -0.1830443211
Bq         0.1987614445    -1.0263492971    -0.3585737706
Bq         0.0791761531    -1.1061962504    -0.0952795964
Bq         0.2386232083    -0.9997336460    -0.4463384953
Bq         0.0393143893    -1.1328119015    -0.0075148717
Bq         0.2784849720    -0.9731179949    -0.5341032200
Bq        -0.0005473745    -1.1594275526     0.0802498530
Bq         0.3183467358    -0.9465023438    -0.6218679447
Bq        -0.0404091383    -1.1860432037     0.1680145777
Bq         0.3582084996    -0.9198866927    -0.7096326694
Bq         0.1588996807    -1.0529649482    -0.2708090458
Bq         0.1080314435    -0.9831876166    -0.1588110707
Bq         0.1877549711    -0.9299563144    -0.3343405201
Bq         0.0681696797    -1.0098032677    -0.0710463460
Bq         0.2276167349    -0.9033406633    -0.4221052448
Bq         0.0283079159    -1.0364189188     0.0167183787
Bq         0.2674784987    -0.8767250122    -0.5098699695
Bq        -0.0115538478    -1.0630345699     0.1044831035
Bq         0.3073402625    -0.8501093610    -0.5976346942
Bq        -0.0514156116    -1.0896502210     0.1922478282
Bq         0.3472020262    -0.8234937099    -0.6853994190
Bq         0.1478932073    -0.9565719655    -0.2465757954
Bq         0.0970249701    -0.8867946339    -0.1345778202
Bq         0.1767484977    -0.8335633317    -0.3101072696
Bq         0.0571632064    -0.9134102850    -0.0468130955
Bq         0.2166102615    -0.8069476805    -0.3978719944
Bq         0.0173014426    -0.9400259361     0.0409516292
Bq         0.2564720253    -0.7803320294    -0.4856367191
Bq        -0.0225603212    -0.9666415872     0.1287163539
Bq         0.2963337891    -0.7537163783    -0.5734014438
Bq        -0.0624220850    -0.9932572383     0.2164810786
Bq         0.3361955529    -0.7271007272    -0.6611661685
Bq         0.1368867339    -0.8601789828    -0.2223425449
Bq         0.0860184968    -0.7904016512    -0.1103445698
Bq         0.1657420244    -0.7371703489    -0.2858740192
Bq         0.0461567330    -0.8170173023    -0.0225798451
Bq         0.2056037881    -0.7105546978    -0.3736387439
Bq         0.0062949692    -0.8436329534     0.0651848797
Bq         0.2454655519    -0.6839390467    -0.4614034686
Bq        -0.0335667946    -0.8702486045     0.1529496044
Bq         0.2853273157    -0.6573233956    -0.5491681933
Bq        -0.0734285584    -0.8968642556     0.2407143291
Bq         0.3251890795    -0.6307077445    -0.6369329180
Bq         0.1258802606    -0.7637860000    -0.1981092945
Bq         0.0750120234    -0.6940086684    -0.0861113193
Bq         0.1547355510    -0.6407773662    -0.2616407687
Bq         0.0351502596    -0.7206243196     0.0016534054
Bq         0.1945973148    -0.6141617151    -0.3494054934
Bq        -0.0047115042    -0.7472399707     0.0894181301
Bq         0.2344590786    -0.5875460640    -0.4371702182
Bq        -0.0445732680    -0.7738556218     0.1771828548
Bq         0.2743208423    -0.5609304129    -0.5249349429
Bq        -0.0844350317    -0.8004712729     0.2649475795
Bq         0.3141826061    -0.5343147618    -0.6126996676
Bq         0.1148737872    -0.6673930173    -0.1738760440
Bq         0.0640055500    -0.5976156857    -0.0618780688
Bq         0.1437290776    -0.5443843835    -0.2374075183
Bq         0.0241437862    -0.6242313368     0.0258866559
Bq         0.1835908414    -0.5177687324    -0.3251722430
Bq        -0.0157179775    -0.6508469879     0.1136513806
Bq         0.2234526052    -0.4911530813    -0.4129369677
Bq        -0.0555797413    -0.6774626391     0.2014161053
Bq         0.2633143690    -0.4645374302    -0.5007016924
Bq        -0.0954415051    -0.7040782902     0.2891808300
Bq         0.3031761328    -0.4379217791    -0.5884664171
Bq         0.1038673138    -0.5710000346    -0.1496427936
Bq         0.0529990767    -0.5012227030    -0.0376448184
Bq         0.1327226042    -0.4479914008    -0.2131742678
Bq         0.0131373129    -0.5278383541     0.0501199063
Bq         0.1725843680    -0.4213757497    -0.3009389925
Bq        -0.0267244509    -0.5544540052     0.1378846310
Bq         0.2124461318    -0.3947600986    -0.3887037172
Bq        -0.0665862147    -0.5810696563     0.2256493557
Bq         0.2523078956    -0.3681444475    -0.4764684420
Bq        -0.1064479785    -0.6076853074     0.3134140805
Bq         0.2921696594    -0.3415287964    -0.5642331667
Bq         0.0928608404    -0.4746070519    -0.1254095431
Bq         0.0419926033    -0.4048297203    -0.0134115679
Bq         0.1217161309    -0.3515984181    -0.1889410174
Bq         0.0021308395    -0.4314453714     0.0743531568
Bq         0.1615778946    -0.3249827670    -0.2767057421
Bq        -0.0377309243    -0.4580610225     0.1621178815
Bq         0.2014396584    -0.2983671159    -0.3644704668
Bq        -0.0775926881    -0.4846766736     0.2498826062
Bq         0.2413014222    -0.2717514648    -0.4522351915
Bq        -0.1174544519    -0.5112923247     0.3376473309
Bq         0.2811631860    -0.2451358137    -0.5399999162
Bq         0.0818543671    -0.3782140692    -0.1011762926
Bq         0.0309861299    -0.3084367376     0.0108216825
Bq         0.1107096575    -0.2552054354    -0.1647077669
Bq        -0.0088756339    -0.3350523887     0.0985864072
Bq         0.1505714213    -0.2285897843    -0.2524724916
Bq        -0.0487373977    -0.3616680398     0.1863511320
Bq         0.1904331851    -0.2019741332    -0.3402372163
Bq        -0.0885991614    -0.3882836909     0.2741158567
Bq         0.2302949489    -0.1753584821    -0.4280019410
Bq        -0.1284609252    -0.4148993420     0.3618805814
Bq         0.2701567126    -0.1487428310    -0.5157666657
Bq         0.0708478937    -0.2818210865    -0.0769430422
Bq         0.0199796565    -0.2120437549     0.0350549330
Bq         0.0997031841    -0.1588124527    -0.1404745164
Bq        -0.0198821072    -0.2386594060     0.1228196577
Bq         0.1395649479    -0.1321968016    -0.2282392412
Bq        -0.0597438710    -0.2652750571     0.2105843824
Bq         0.1794267117    -0.1055811505    -0.3160039659
Bq        -0.0996056348    -0.2918907082     0.2983491071
Bq         0.2192884755    -0.0789654993    -0.4037686906
Bq        -0.1394673986    -0.3185063593     0.3861138318
Bq         0.2591502393    -0.0523498482    -0.4915334153
Bq         0.0598414203    -0.1854281038    -0.0527097917
Bq         0.0089731832    -0.1156507722     0.0592881834
Bq         0.0886967107    -0.0624194700    -0.1162412660
Bq        -0.0308885806    -0.1422664233     0.1470529082
Bq         0.1285584745    -0.0358038189    -0.2040059907
Bq        -0.0707503444    -0.1688820744     0.2348176329
Bq         0.1684202383    -0.0091881677    -0.2917707154
Bq        -0.1106121082    -0.1954977255     0.3225823576
Bq         0.2082820021     0.0174274834    -0.3795354401
Bq        -0.1504738720    -0.2221133766     0.4103470823
Bq         0.2481437659     0.0440431345    -0.4673001648
Bq         0.0488349470    -0.0890351211    -0.0284765413
Bq         0.6503457251    -4.9352999078    -1.1110209518
Bq         0.7300692527    -4.8820686056    -1.2865504013
Bq         0.6104839613    -4.9619155589    -1.0232562271
Bq         0.7699310165    -4.8554529545    -1.3743151260
Bq         0.5706221975    -4.9885312100    -0.9354915024
Bq         0.8097927802    -4.8288373034    -1.4620798507
Bq         0.5307604337    -5.0151468611    -0.8477267777
Bq         0.8496545440    -4.8022216522    -1.5498445754
Bq         0.4908986699    -5.0417625122    -0.7599620530
Bq         0.8895163078    -4.7756060011    -1.6376093001
Bq         0.6902074889    -4.9086842567    -1.1987856765
Bq         0.6393392517    -4.8389069251    -1.0867877014
Bq         0.7190627793    -4.7856756229    -1.2623171508
Bq         0.5994774879    -4.8655225762    -0.9990229767
Bq         0.7589245431    -4.7590599717    -1.3500818755
Bq         0.5596157241    -4.8921382273    -0.9112582519
Bq         0.7987863069    -4.7324443206    -1.4378466002
Bq         0.5197539604    -4.9187538784    -0.8234935272
Bq         0.8386480707    -4.7058286695    -1.5256113249
Bq         0.4798921966    -4.9453695295    -0.7357288025
Bq         0.8785098344    -4.6792130184    -1.6133760496
Bq         0.6792010155    -4.8122912740    -1.1745524261
Bq         0.6283327783    -4.7425139424    -1.0625544509

1
2
3
4
5
6
7
8
9
10
11
12
13
14
15
16
17
18
19
20
21
22
23
24
25
26
27
28
29
30
31
32
33
34
35
36
37
38
39
40
41
42
43
44
45
46
47
48
49
50
51
52
53
54
55
56
57
58
59
60
61
62
63
64
65
66
67
68
69
70
71
72
73
74
75
76
77
78
79
80
81
82
83
84
85
86
87
88
89
90
91
92
93
94
95
96
97
98
99
100
101
102
103
104
105
106
107
108
109
110
111
112
113
114
115
116
117
118
119
120
121
122
123
124
125
126
127
128
129
130
131
132
133
134
135
136
137
138
139
140
141
142
143
144
145
146
147
148
149
150
151
152
153
154
155
156
157
158
159
160
161
162
163
164
165
166
167
168
169
170
171
172
173
174
175
176
177
178
179
180
181
182
183
184
185
186
187
188
189
190
191
192
193
194
195
196
197
198
199
200
201
202
203
204
205
206
207
208
209
210
211
212
213
214
215
216
217
218
219
220
221
222
223
224
225
226
227
228
229
230
231
232
233
234
235
236

