%nproc=8
%mem=1000MB
# rb3lyp/6-311+g** NMR geom=connectivity

Title

0 1
C    -4.0500558   -0.5771862    0.8136712
H    -5.0263804   -1.0082727    1.0024760
C    -3.9381552    0.6617804    0.2400876
H    -4.8252424    1.2338890   -0.0111295
C    -2.6768410    1.2433246    0.0057578
C    -1.4974121    0.5051527    0.2848253
C    -1.6508332   -0.7338728    0.9404026
H    -0.7713646   -1.2730967    1.2633753
C    -2.8898548   -1.2624035    1.1994307
H    -2.9683706   -2.2124563    1.7152676
C    -2.5773185    2.5963696   -0.4192930
H    -3.4870728    3.1412239   -0.6474055
C    -1.3741895    3.2147896   -0.4364030
H    -1.2997315    4.2742019   -0.6578144
C    -0.1719488    2.4994090   -0.1734588
C    -0.2043917    1.1018437    0.0192689
C     1.0513491    3.2042560   -0.0676222
H     1.0427344    4.2819499   -0.1896997
C     2.1942091    2.5487446    0.2579577
H     3.1168527    3.0912848    0.4334727
C     2.2216473    1.1336562    0.2934990
C     1.0486931    0.3945528    0.0302412
C     3.4483363    0.4614633    0.5573939
H     4.3095794    1.0606054    0.8334846
C     3.5427346   -0.8855926    0.4749463
H     4.4731467   -1.3939704    0.7038822
C     2.4490052   -1.6474447   -0.0196319
C     1.2150704   -1.0057258   -0.3013573
C     0.2531113   -1.7434440   -1.0216591
H    -0.6541356   -1.2535051   -1.3462847
C     0.4494193   -3.0628597   -1.3413779
H    -0.3083162   -3.5944309   -1.9054060
C     1.6251726   -3.7207967   -0.9552541
H     1.7670048   -4.7687404   -1.1927019
C     2.6109872   -3.0144177   -0.3183050
H     3.5525612   -3.4902813   -0.0646367
Bq         0.6331599077    -2.0168947753    -0.3477279999
Bq         0.5822916705    -1.9471174437    -0.2357300247
Bq         0.6620151981    -1.8938861415    -0.4112594742
Bq         0.5424299067    -1.9737330948    -0.1479653000
Bq         0.7018769619    -1.8672704904    -0.4990241989
Bq         0.5025681429    -2.0003487459    -0.0602005753
Bq         0.7417387256    -1.8406548393    -0.5867889236
Bq         0.4627063791    -2.0269643970     0.0275641494
Bq         0.7816004894    -1.8140391882    -0.6745536483
Bq         0.4228446153    -2.0535800481     0.1153288741
Bq         0.8214622532    -1.7874235371    -0.7623183730
Bq         0.6221534343    -1.9205017926    -0.3234947495
Bq         0.5712851971    -1.8507244610    -0.2114967743
Bq         0.6510087247    -1.7974931588    -0.3870262237
Bq         0.5314234333    -1.8773401121    -0.1237320496
Bq         0.6908704885    -1.7708775077    -0.4747909484
Bq         0.4915616695    -1.9039557632    -0.0359673249
Bq         0.7307322523    -1.7442618566    -0.5625556731
Bq         0.4516999058    -1.9305714143     0.0517973999
Bq         0.7705940161    -1.7176462055    -0.6503203979
Bq         0.4118381420    -1.9571870654     0.1395621246
Bq         0.8104557798    -1.6910305543    -0.7380851226
Bq         0.6111469609    -1.8241088099    -0.2992614990
Bq         0.5602787238    -1.7543314783    -0.1872635238
Bq         0.6400022513    -1.7011001761    -0.3627929733
Bq         0.5204169600    -1.7809471294    -0.0994987991
Bq         0.6798640151    -1.6744845250    -0.4505576980
Bq         0.4805551962    -1.8075627805    -0.0117340744
Bq         0.7197257789    -1.6478688739    -0.5383224227
Bq         0.4406934324    -1.8341784316     0.0760306503
Bq         0.7595875427    -1.6212532227    -0.6260871474
Bq         0.4008316686    -1.8607940827     0.1637953750
Bq         0.7994493065    -1.5946375716    -0.7138518721
Bq         0.6001404875    -1.7277158272    -0.2750282485
Bq         0.5492722504    -1.6579384956    -0.1630302734
Bq         0.6289957780    -1.6047071934    -0.3385597228
Bq         0.5094104866    -1.6845541467    -0.0752655487
Bq         0.6688575417    -1.5780915422    -0.4263244475
Bq         0.4695487228    -1.7111697978     0.0124991761
Bq         0.7087193055    -1.5514758911    -0.5140891722
Bq         0.4296869590    -1.7377854489     0.1002639008
Bq         0.7485810693    -1.5248602400    -0.6018538969
Bq         0.3898251952    -1.7644011000     0.1880286255
Bq         0.7884428331    -1.4982445889    -0.6896186216
Bq         0.5891340142    -1.6313228445    -0.2507949981
Bq         0.5382657770    -1.5615455129    -0.1387970229
Bq         0.6179893046    -1.5083142106    -0.3143264723
Bq         0.4984040132    -1.5881611640    -0.0510322982
Bq         0.6578510684    -1.4816985595    -0.4020911971
Bq         0.4585422494    -1.6147768151     0.0367324265
Bq         0.6977128322    -1.4550829084    -0.4898559218
Bq         0.4186804856    -1.6413924662     0.1244971512
Bq         0.7375745959    -1.4284672573    -0.5776206465
Bq         0.3788187219    -1.6680081173     0.2122618759
Bq         0.7774363597    -1.4018516062    -0.6653853712
Bq         0.5781275408    -1.5349298617    -0.2265617476
Bq         0.5272593036    -1.4651525301    -0.1145637725
Bq         0.6069828312    -1.4119212279    -0.2900932219
Bq         0.4873975398    -1.4917681812    -0.0267990477
Bq         0.6468445950    -1.3853055768    -0.3778579466
Bq         0.4475357761    -1.5183838324     0.0609656770
Bq         0.6867063588    -1.3586899257    -0.4656226713
Bq         0.4076740123    -1.5449994835     0.1487304017
Bq         0.7265681226    -1.3320742746    -0.5533873960
Bq         0.3678122485    -1.5716151346     0.2364951264
Bq         0.7664298864    -1.3054586235    -0.6411521207
Bq         0.5671210674    -1.4385368790    -0.2023284972
Bq         0.5162528303    -1.3687595474    -0.0903305220
Bq         0.5959763578    -1.3155282452    -0.2658599714
Bq         0.4763910665    -1.3953751985    -0.0025657973
Bq         0.6358381216    -1.2889125941    -0.3536246961
Bq         0.4365293027    -1.4219908496     0.0851989274
Bq         0.6756998854    -1.2622969430    -0.4413894208
Bq         0.3966675389    -1.4486065008     0.1729636521
Bq         0.7155616492    -1.2356812919    -0.5291541456
Bq         0.3568057751    -1.4752221519     0.2607283769
Bq         0.7554234130    -1.2090656408    -0.6169188703
Bq         0.5561145940    -1.3421438963    -0.1780952467
Bq         0.5052463569    -1.2723665647    -0.0660972715
Bq         0.5849698845    -1.2191352625    -0.2416267210
Bq         0.4653845931    -1.2989822158     0.0216674532
Bq         0.6248316483    -1.1925196114    -0.3293914457
Bq         0.4255228293    -1.3255978669     0.1094321779
Bq         0.6646934120    -1.1659039603    -0.4171561704
Bq         0.3856610655    -1.3522135180     0.1971969026
Bq         0.7045551758    -1.1392883092    -0.5049208951
Bq         0.3457993017    -1.3788291691     0.2849616273
Bq         0.7444169396    -1.1126726581    -0.5926856198
Bq         0.5451081207    -1.2457509136    -0.1538619963
Bq         0.4942398835    -1.1759735820    -0.0418640211
Bq         0.5739634111    -1.1227422798    -0.2173934705
Bq         0.4543781197    -1.2025892331     0.0459007036
Bq         0.6138251749    -1.0961266287    -0.3051581952
Bq         0.4145163559    -1.2292048842     0.1336654283
Bq         0.6536869387    -1.0695109776    -0.3929229199
Bq         0.3746545922    -1.2558205353     0.2214301531
Bq         0.6935487025    -1.0428953265    -0.4806876446
Bq         0.3347928284    -1.2824361864     0.3091948778
Bq         0.7334104662    -1.0162796754    -0.5684523694
Bq         0.5341016473    -1.1493579309    -0.1296287458
Bq         0.4832334101    -1.0795805993    -0.0176307706
Bq         0.5629569377    -1.0263492971    -0.1931602200
Bq         0.4433716464    -1.1061962504     0.0701339541
Bq         0.6028187015    -0.9997336460    -0.2809249448
Bq         0.4035098826    -1.1328119015     0.1578986788
Bq         0.6426804653    -0.9731179949    -0.3686896695
Bq         0.3636481188    -1.1594275526     0.2456634035
Bq         0.6825422291    -0.9465023438    -0.4564543942
Bq         0.3237863550    -1.1860432037     0.3334281282
Bq         0.7224039929    -0.9198866927    -0.5442191189
Bq         0.5230951739    -1.0529649482    -0.1053954953
Bq         0.4722269368    -0.9831876166     0.0066024798
Bq         0.5519504643    -0.9299563144    -0.1689269696
Bq         0.4323651730    -1.0098032677     0.0943672045
Bq         0.5918122281    -0.9033406633    -0.2566916943
Bq         0.3925034092    -1.0364189188     0.1821319293
Bq         0.6316739919    -0.8767250122    -0.3444564190
Bq         0.3526416454    -1.0630345699     0.2698966540
Bq         0.6715357557    -0.8501093610    -0.4322211437
Bq         0.3127798816    -1.0896502210     0.3576613787
Bq         0.7113975195    -0.8234937099    -0.5199858684
Bq         0.5120887006    -0.9565719655    -0.0811622449
Bq         0.4612204634    -0.8867946339     0.0308357303
Bq         0.5409439910    -0.8335633317    -0.1446937191
Bq         0.4213586996    -0.9134102850     0.1186004550
Bq         0.5808057548    -0.8069476805    -0.2324584438
Bq         0.3814969358    -0.9400259361     0.2063651797
Bq         0.6206675186    -0.7803320294    -0.3202231686
Bq         0.3416351720    -0.9666415872     0.2941299044
Bq         0.6605292823    -0.7537163783    -0.4079878933
Bq         0.3017734083    -0.9932572383     0.3818946291
Bq         0.7003910461    -0.7271007272    -0.4957526180
Bq         0.5010822272    -0.8601789828    -0.0569289944
Bq         0.4502139900    -0.7904016512     0.0550689808
Bq         0.5299375176    -0.7371703489    -0.1204604687
Bq         0.4103522262    -0.8170173023     0.1428337055
Bq         0.5697992814    -0.7105546978    -0.2082251934
Bq         0.3704904625    -0.8436329534     0.2305984302
Bq         0.6096610452    -0.6839390467    -0.2959899181
Bq         0.3306286987    -0.8702486045     0.3183631549
Bq         0.6495228090    -0.6573233956    -0.3837546428
Bq         0.2907669349    -0.8968642556     0.4061278796
Bq         0.6893845728    -0.6307077445    -0.4715193675
Bq         0.4900757538    -0.7637860000    -0.0326957440
Bq         0.4392075167    -0.6940086684     0.0793022312
Bq         0.5189310442    -0.6407773662    -0.0962272182
Bq         0.3993457529    -0.7206243196     0.1670669559
Bq         0.5587928080    -0.6141617151    -0.1839919429
Bq         0.3594839891    -0.7472399707     0.2548316806
Bq         0.5986545718    -0.5875460640    -0.2717566676
Bq         0.3196222253    -0.7738556218     0.3425964053
Bq         0.6385163356    -0.5609304129    -0.3595213924
Bq         0.2797604615    -0.8004712729     0.4303611301
Bq         0.6783780994    -0.5343147618    -0.4472861171
Bq         0.4790692804    -0.6673930173    -0.0084624935
Bq         0.4282010433    -0.5976156857     0.1035354817
Bq         0.5079245709    -0.5443843835    -0.0719939678
Bq         0.3883392795    -0.6242313368     0.1913002064
Bq         0.5477863346    -0.5177687324    -0.1597586925
Bq         0.3484775157    -0.6508469879     0.2790649311
Bq         0.5876480984    -0.4911530813    -0.2475234172
Bq         0.3086157519    -0.6774626391     0.3668296558
Bq         0.6275098622    -0.4645374302    -0.3352881419
Bq         0.2687539881    -0.7040782902     0.4545943805
Bq         0.6673716260    -0.4379217791    -0.4230528666
Bq         0.4680628071    -0.5710000346     0.0157707570
Bq         0.4171945699    -0.5012227030     0.1277687321
Bq         0.4969180975    -0.4479914008    -0.0477607173
Bq         0.3773328061    -0.5278383541     0.2155334568
Bq         0.5367798613    -0.4213757497    -0.1355254420
Bq         0.3374710423    -0.5544540052     0.3032981815
Bq         0.5766416251    -0.3947600986    -0.2232901667
Bq         0.2976092786    -0.5810696563     0.3910629063
Bq         0.6165033889    -0.3681444475    -0.3110548914
Bq         0.2577475148    -0.6076853074     0.4788276310
Bq         0.6563651526    -0.3415287964    -0.3988196162
Bq         0.4570563337    -0.4746070519     0.0400040074
Bq         0.4061880965    -0.4048297203     0.1520019826
Bq         0.4859116241    -0.3515984181    -0.0235274668
Bq         0.3663263328    -0.4314453714     0.2397667073
Bq         0.5257733879    -0.3249827670    -0.1112921916
Bq         0.3264645690    -0.4580610225     0.3275314320
Bq         0.5656351517    -0.2983671159    -0.1990569163
Bq         0.2866028052    -0.4846766736     0.4152961567
Bq         0.6054969155    -0.2717514648    -0.2868216410
Bq         0.2467410414    -0.5112923247     0.5030608814
Bq         0.6453586793    -0.2451358137    -0.3745863657
Bq         0.4460498603    -0.3782140692     0.0642372579
Bq         0.3951816232    -0.3084367376     0.1762352330
Bq         0.4749051507    -0.2552054354     0.0007057836
Bq         0.3553198594    -0.3350523887     0.2639999578
Bq         0.5147669145    -0.2285897843    -0.0870589411
Bq         0.3154580956    -0.3616680398     0.3517646825
Bq         0.5546286783    -0.2019741332    -0.1748236658
Bq         0.2755963318    -0.3882836909     0.4395294072
Bq         0.5944904421    -0.1753584821    -0.2625883905
Bq         0.2357345680    -0.4148993420     0.5272941319
Bq         0.6343522059    -0.1487428310    -0.3503531152
Bq         0.4350433870    -0.2818210865     0.0884705083
Bq         0.3841751498    -0.2120437549     0.2004684835

1
2
3
4
5
6
7
8
9
10
11
12
13
14
15
16
17
18
19
20
21
22
23
24
25
26
27
28
29
30
31
32
33
34
35
36
37
38
39
40
41
42
43
44
45
46
47
48
49
50
51
52
53
54
55
56
57
58
59
60
61
62
63
64
65
66
67
68
69
70
71
72
73
74
75
76
77
78
79
80
81
82
83
84
85
86
87
88
89
90
91
92
93
94
95
96
97
98
99
100
101
102
103
104
105
106
107
108
109
110
111
112
113
114
115
116
117
118
119
120
121
122
123
124
125
126
127
128
129
130
131
132
133
134
135
136
137
138
139
140
141
142
143
144
145
146
147
148
149
150
151
152
153
154
155
156
157
158
159
160
161
162
163
164
165
166
167
168
169
170
171
172
173
174
175
176
177
178
179
180
181
182
183
184
185
186
187
188
189
190
191
192
193
194
195
196
197
198
199
200
201
202
203
204
205
206
207
208
209
210
211
212
213
214
215
216
217
218
219
220
221
222
223
224
225
226
227
228
229
230
231
232
233
234
235
236

