%nproc=8
%mem=1000MB
# rb3lyp/6-311+g** NMR geom=connectivity

Title

0 1
C    -4.0500558   -0.5771862    0.8136712
H    -5.0263804   -1.0082727    1.0024760
C    -3.9381552    0.6617804    0.2400876
H    -4.8252424    1.2338890   -0.0111295
C    -2.6768410    1.2433246    0.0057578
C    -1.4974121    0.5051527    0.2848253
C    -1.6508332   -0.7338728    0.9404026
H    -0.7713646   -1.2730967    1.2633753
C    -2.8898548   -1.2624035    1.1994307
H    -2.9683706   -2.2124563    1.7152676
C    -2.5773185    2.5963696   -0.4192930
H    -3.4870728    3.1412239   -0.6474055
C    -1.3741895    3.2147896   -0.4364030
H    -1.2997315    4.2742019   -0.6578144
C    -0.1719488    2.4994090   -0.1734588
C    -0.2043917    1.1018437    0.0192689
C     1.0513491    3.2042560   -0.0676222
H     1.0427344    4.2819499   -0.1896997
C     2.1942091    2.5487446    0.2579577
H     3.1168527    3.0912848    0.4334727
C     2.2216473    1.1336562    0.2934990
C     1.0486931    0.3945528    0.0302412
C     3.4483363    0.4614633    0.5573939
H     4.3095794    1.0606054    0.8334846
C     3.5427346   -0.8855926    0.4749463
H     4.4731467   -1.3939704    0.7038822
C     2.4490052   -1.6474447   -0.0196319
C     1.2150704   -1.0057258   -0.3013573
C     0.2531113   -1.7434440   -1.0216591
H    -0.6541356   -1.2535051   -1.3462847
C     0.4494193   -3.0628597   -1.3413779
H    -0.3083162   -3.5944309   -1.9054060
C     1.6251726   -3.7207967   -0.9552541
H     1.7670048   -4.7687404   -1.1927019
C     2.6109872   -3.0144177   -0.3183050
H     3.5525612   -3.4902813   -0.0646367
Bq        -0.3831196139     2.2117401821     0.3974059347
Bq        -0.3809956405     1.9508438801    -0.1428982466
Bq        -0.3834736095     2.2552228991     0.4874566315
Bq        -0.3806416449     1.9073611631    -0.2329489435
Bq        -0.3838276051     2.2987056161     0.5775073284
Bq        -0.3802876493     1.8638784461    -0.3229996404
Bq        -0.3820576272     2.0812920311     0.1272538440
Bq        -0.3822406905     2.2148261408     0.1738221599
Bq        -0.3815326993     2.1278607068    -0.0062792339
Bq        -0.3825946861     2.2583088578     0.2638728567
Bq        -0.3811787038     2.0843779898    -0.0963299308
Bq        -0.3829486816     2.3017915748     0.3539235536
Bq        -0.3808247082     2.0408952728    -0.1863806277
Bq        -0.3833026772     2.3452742918     0.4439742505
Bq        -0.3804707126     1.9974125558    -0.2764313246
Bq        -0.3836566728     2.3887570088     0.5340249474
Bq        -0.3801167170     1.9539298388    -0.3664820214
Bq        -0.3818866949     2.1713434238     0.0837714630
Bq        -0.3820697582     2.3048775334     0.1303397788
Bq        -0.3813617671     2.2179120994    -0.0497616149
Bq        -0.3824237538     2.3483602505     0.2203904757
Bq        -0.3810077715     2.1744293824    -0.1398123118
Bq        -0.3827777494     2.3918429675     0.3104411726
Bq        -0.3806537759     2.1309466654    -0.2298630087
Bq        -0.3831317449     2.4353256845     0.4004918695
Bq        -0.3802997803     2.0874639484    -0.3199137056
Bq        -0.3834857405     2.4788084015     0.4905425664
Bq        -0.3799457848     2.0439812314    -0.4099644025
Bq        -0.3817157626     2.2613948164     0.0402890819
Bq        -0.3818988259     2.3949289261     0.0868573978
Bq        -0.3811908348     2.3079634921    -0.0932439960
Bq        -0.3822528215     2.4384116431     0.1769080947
Bq        -0.3808368392     2.2644807751    -0.1832946929
Bq        -0.3826068171     2.4818943601     0.2669587916
Bq        -0.3804828436     2.2209980581    -0.2733453897
Bq        -0.3829608127     2.5253770771     0.3570094884
Bq        -0.3801288481     2.1775153411    -0.3633960866
Bq        -0.3833148082     2.5688597941     0.4470601853
Bq        -0.3797748525     2.1340326241    -0.4534467835
Bq        -0.3815448304     2.3514462091    -0.0031932991
Bq        -0.3817278937     2.4849803188     0.0433750168
Bq        -0.3810199025     2.3980148848    -0.1367263770
Bq        -0.3820818892     2.5284630358     0.1334257136
Bq        -0.3806659069     2.3545321678    -0.2267770739
Bq        -0.3824358848     2.5719457528     0.2234764105
Bq        -0.3803119114     2.3110494508    -0.3168277708
Bq        -0.3827898804     2.6154284698     0.3135271074
Bq        -0.3799579158     2.2675667338    -0.4068784676
Bq        -0.3831438760     2.6589111868     0.4035778043
Bq        -0.3796039202     2.2240840168    -0.4969291645
Bq        -0.3813738981     2.4414976018    -0.0466756801
Bq        -0.2902752801    -2.0175893147     2.2178871723
Bq        -0.2895672889    -2.1045547487     2.0377857786
Bq        -0.2906292756    -1.9741065977     2.3079378692
Bq        -0.2892132933    -2.1480374658     1.9477350817
Bq        -0.2909832712    -1.9306238807     2.3979885661
Bq        -0.2888592978    -2.1915201828     1.8576843848
Bq        -0.2913372668    -1.8871411637     2.4880392630
Bq        -0.2885053022    -2.2350028998     1.7676336879
Bq        -0.2916912624    -1.8436584467     2.5780899599
Bq        -0.2881513066    -2.2784856168     1.6775829910
Bq        -0.2899212845    -2.0610720317     2.1278364754
Bq        -0.2901043478    -1.9275379221     2.1744047913
Bq        -0.2893963566    -2.0145033561     1.9943033975
Bq        -0.2904583434    -1.8840552051     2.2644554882
Bq        -0.2890423611    -2.0579860731     1.9042527006
Bq        -0.2908123389    -1.8405724881     2.3545061851
Bq        -0.2886883655    -2.1014687901     1.8142020038
Bq        -0.2911663345    -1.7970897711     2.4445568819
Bq        -0.2883343699    -2.1449515071     1.7241513069
Bq        -0.2915203301    -1.7536070540     2.5346075788
Bq        -0.2879803743    -2.1884342241     1.6341006100
Bq        -0.2897503522    -1.9710206391     2.0843540944
Bq        -0.2899334155    -1.8374865294     2.1309224103
Bq        -0.2892254244    -1.9244519634     1.9508210165
Bq        -0.2902874111    -1.7940038124     2.2209731071
Bq        -0.2888714288    -1.9679346804     1.8607703196
Bq        -0.2906414067    -1.7505210954     2.3110238040
Bq        -0.2885174332    -2.0114173974     1.7707196227
Bq        -0.2909954022    -1.7070383784     2.4010745009
Bq        -0.2881634376    -2.0549001144     1.6806689259
Bq        -0.2913493978    -1.6635556614     2.4911251978
Bq        -0.2878094421    -2.0983828314     1.5906182290
Bq        -0.2895794199    -1.8809692464     2.0408717134
Bq        -0.2897624832    -1.7474351367     2.0874400292
Bq        -0.2890544921    -1.8344005707     1.9073386355
Bq        -0.2901164788    -1.7039524197     2.1774907261
Bq        -0.2887004965    -1.8778832877     1.8172879386
Bq        -0.2904704744    -1.6604697027     2.2675414230
Bq        -0.2883465009    -1.9213660047     1.7272372417
Bq        -0.2908244700    -1.6169869857     2.3575921199
Bq        -0.2879925054    -1.9648487217     1.6371865448
Bq        -0.2911784655    -1.5735042687     2.4476428168
Bq        -0.2876385098    -2.0083314388     1.5471358479
Bq        -0.2894084877    -1.7909178537     1.9973893323
Bq        -0.2895915510    -1.6573837441     2.0439576482
Bq        -0.2888835598    -1.7443491781     1.8638562544
Bq        -0.2899455465    -1.6139010270     2.1340083451
Bq        -0.2885295642    -1.7878318951     1.7738055576
Bq        -0.2902995421    -1.5704183100     2.2240590420
Bq        -0.2881755687    -1.8313146121     1.6837548607
Bq        -0.2906535377    -1.5269355930     2.3141097388
Bq        -0.2878215731    -1.8747973291     1.5937041638
Bq        -0.2910075333    -1.4834528760     2.4041604357
Bq        -0.2874675775    -1.9182800461     1.5036534669
Bq        -0.2892375554    -1.7008664611     1.9539069513
Bq        -0.2894206187    -1.5673323514     2.0004752672
Bq        -0.2887126275    -1.6542977854     1.8203738734
Bq        -0.2897746143    -1.5238496344     2.0905259640
Bq        -0.2883586320    -1.6977805024     1.7303231765
Bq        -0.2901286098    -1.4803669174     2.1805766609
Bq        -0.2880046364    -1.7412632194     1.6402724796
Bq        -0.2904826054    -1.4368842004     2.2706273578
Bq        -0.2876506408    -1.7847459364     1.5502217828
Bq        -0.2908366010    -1.3934014834     2.3606780547
Bq        -0.2872966452    -1.8282286534     1.4601710859
Bq        -0.2890666231    -1.6108150684     1.9104245703
Bq        -0.2892496864    -1.4772809587     1.9569928861
Bq        -0.2885416953    -1.5642463927     1.7768914924
Bq        -0.2896036820    -1.4337982417     2.0470435830
Bq        -0.2881876997    -1.6077291097     1.6868407955
Bq        -0.2899576776    -1.3903155247     2.1370942799
Bq        -0.2878337041    -1.6512118267     1.5967900986
Bq        -0.2903116731    -1.3468328077     2.2271449768
Bq        -0.2874797085    -1.6946945437     1.5067394017
Bq        -0.2906656687    -1.3033500907     2.3171956737
Bq        -0.2871257130    -1.7381772607     1.4166887048
Bq        -0.2888956908    -1.5207636757     1.8669421893
Bq        -0.2890787541    -1.3872295660     1.9135105051
Bq        -0.2883707630    -1.4741950001     1.7334091113
Bq        -0.2894327497    -1.3437468490     2.0035612020
Bq        -0.2880167674    -1.5176777171     1.6433584145
Bq        -0.2897867453    -1.3002641320     2.0936118989
Bq        -0.2876627718    -1.5611604341     1.5533077176
Bq        -0.2901407409    -1.2567814150     2.1836625957
Bq        -0.2873087763    -1.6046431511     1.4632570207
Bq        -0.2904947364    -1.2132986980     2.2737132926
Bq        -0.2869547807    -1.6481258681     1.3732063238
Bq        -0.2887247586    -1.4307122830     1.8234598082
Bq        -0.2889078219    -1.2971781734     1.8700281241
Bq        -0.2881998307    -1.3841436074     1.6899267303
Bq        -0.2892618174    -1.2536954564     1.9600788210
Bq        -0.2878458351    -1.4276263244     1.5998760334
Bq        -0.2896158130    -1.2102127394     2.0501295178
Bq        -0.2874918396    -1.4711090414     1.5098253365
Bq        -0.2899698086    -1.1667300224     2.1401802147
Bq        -0.2871378440    -1.5145917584     1.4197746397
Bq        -0.2903238042    -1.1232473054     2.2302309116
Bq        -0.2867838484    -1.5580744754     1.3297239428
Bq        -0.2885538263    -1.3406608904     1.7799774272
Bq        -0.2887368896    -1.2071267807     1.8265457430
Bq        -0.2880288984    -1.2940922147     1.6464443493
Bq        -0.2890908852    -1.1636440637     1.9165964399
Bq        -0.2876749029    -1.3375749317     1.5563936524
Bq        -0.2894448807    -1.1201613467     2.0066471368
Bq        -0.2873209073    -1.3810576487     1.4663429555
Bq        -0.2897988763    -1.0766786297     2.0966978337
Bq        -0.2869669117    -1.4245403657     1.3762922586
Bq        -0.2901528719    -1.0331959127     2.1867485306
Bq        -0.2866129161    -1.4680230827     1.2862415617
Bq        -0.2883828940    -1.2506094977     1.7364950462
Bq        -0.2885659573    -1.1170753880     1.7830633620
Bq        -0.2878579662    -1.2040408220     1.6029619682
Bq        -0.2889199529    -1.0735926710     1.8731140589
Bq        -0.2875039706    -1.2475235390     1.5129112714
Bq        -0.2892739485    -1.0301099540     1.9631647558
Bq        -0.2871499750    -1.2910062560     1.4228605745
Bq        -0.2896279440    -0.9866272370     2.0532154527
Bq        -0.2867959794    -1.3344889731     1.3328098776
Bq        -0.2899819396    -0.9431445200     2.1432661495
Bq        -0.2864419839    -1.3779716901     1.2427591807
Bq        -0.2882119617    -1.1605581050     1.6930126651
Bq        -0.2883950250    -1.0270239954     1.7395809810
Bq        -0.2876870339    -1.1139894294     1.5594795872
Bq        -0.2887490206    -0.9835412784     1.8296316779
Bq        -0.2873330383    -1.1574721464     1.4694288903
Bq        -0.2891030162    -0.9400585614     1.9196823747
Bq        -0.2869790427    -1.2009548634     1.3793781934
Bq        -0.2894570118    -0.8965758443     2.0097330716
Bq        -0.2866250472    -1.2444375804     1.2893274966
Bq        -0.2898110073    -0.8530931273     2.0997837685
Bq        -0.2862710516    -1.2879202974     1.1992767997
Bq        -0.2880410295    -1.0705067124     1.6495302841
Bq        -0.2882240928    -0.9369726027     1.6960985999
Bq        -0.2875161016    -1.0239380367     1.5159972062
Bq        -0.2885780883    -0.8934898857     1.7861492968
Bq        -0.2871621060    -1.0674207537     1.4259465093
Bq        -0.2889320839    -0.8500071687     1.8761999937
Bq        -0.2868081105    -1.1109034707     1.3358958124
Bq        -0.2892860795    -0.8065244517     1.9662506906
Bq        -0.2864541149    -1.1543861877     1.2458451155
Bq        -0.2896400751    -0.7630417347     2.0563013875
Bq        -0.2861001193    -1.1978689047     1.1557944186
Bq        -0.2878700972    -0.9804553197     1.6060479031
Bq        -0.2880531605    -0.8469212100     1.6526162189
Bq        -0.2873451693    -0.9338866440     1.4725148251
Bq        -0.2884071561    -0.8034384930     1.7426669158
Bq        -0.2869911738    -0.9773693610     1.3824641283
Bq        -0.2887611516    -0.7599557760     1.8327176127
Bq        -0.2866371782    -1.0208520780     1.2924134314

1
2
3
4
5
6
7
8
9
10
11
12
13
14
15
16
17
18
19
20
21
22
23
24
25
26
27
28
29
30
31
32
33
34
35
36
37
38
39
40
41
42
43
44
45
46
47
48
49
50
51
52
53
54
55
56
57
58
59
60
61
62
63
64
65
66
67
68
69
70
71
72
73
74
75
76
77
78
79
80
81
82
83
84
85
86
87
88
89
90
91
92
93
94
95
96
97
98
99
100
101
102
103
104
105
106
107
108
109
110
111
112
113
114
115
116
117
118
119
120
121
122
123
124
125
126
127
128
129
130
131
132
133
134
135
136
137
138
139
140
141
142
143
144
145
146
147
148
149
150
151
152
153
154
155
156
157
158
159
160
161
162
163
164
165
166
167
168
169
170
171
172
173
174
175
176
177
178
179
180
181
182
183
184
185
186
187
188
189
190
191
192
193
194
195
196
197
198
199
200
201
202
203
204
205
206
207
208
209
210
211
212
213
214
215
216
217
218
219
220
221
222
223
224
225
226
227
228
229
230
231
232
233
234
235
236

