%nproc=8
%mem=1000MB
# rb3lyp/6-311+g** NMR geom=connectivity

Title

0 1
C    -4.0500558   -0.5771862    0.8136712
H    -5.0263804   -1.0082727    1.0024760
C    -3.9381552    0.6617804    0.2400876
H    -4.8252424    1.2338890   -0.0111295
C    -2.6768410    1.2433246    0.0057578
C    -1.4974121    0.5051527    0.2848253
C    -1.6508332   -0.7338728    0.9404026
H    -0.7713646   -1.2730967    1.2633753
C    -2.8898548   -1.2624035    1.1994307
H    -2.9683706   -2.2124563    1.7152676
C    -2.5773185    2.5963696   -0.4192930
H    -3.4870728    3.1412239   -0.6474055
C    -1.3741895    3.2147896   -0.4364030
H    -1.2997315    4.2742019   -0.6578144
C    -0.1719488    2.4994090   -0.1734588
C    -0.2043917    1.1018437    0.0192689
C     1.0513491    3.2042560   -0.0676222
H     1.0427344    4.2819499   -0.1896997
C     2.1942091    2.5487446    0.2579577
H     3.1168527    3.0912848    0.4334727
C     2.2216473    1.1336562    0.2934990
C     1.0486931    0.3945528    0.0302412
C     3.4483363    0.4614633    0.5573939
H     4.3095794    1.0606054    0.8334846
C     3.5427346   -0.8855926    0.4749463
H     4.4731467   -1.3939704    0.7038822
C     2.4490052   -1.6474447   -0.0196319
C     1.2150704   -1.0057258   -0.3013573
C     0.2531113   -1.7434440   -1.0216591
H    -0.6541356   -1.2535051   -1.3462847
C     0.4494193   -3.0628597   -1.3413779
H    -0.3083162   -3.5944309   -1.9054060
C     1.6251726   -3.7207967   -0.9552541
H     1.7670048   -4.7687404   -1.1927019
C     2.6109872   -3.0144177   -0.3183050
H     3.5525612   -3.4902813   -0.0646367
Bq         1.7410191457     1.1974923733     1.1748794544
Bq         1.9464500603     1.3113136455     0.4101292617
Bq         1.7153402814     1.1832647143     1.2704732285
Bq         1.9721289246     1.3255413046     0.3145354876
Bq         1.8437346030     1.2544030094     0.7925043580
Bq         1.8143646882     1.3391580444     0.9018386717
Bq         1.8657224168     1.3676133625     0.7106511235
Bq         1.7886858238     1.3249303854     0.9974324458
Bq         1.8914012811     1.3818410215     0.6150573494
Bq         1.7630069595     1.3107027264     1.0930262199
Bq         1.9170801454     1.3960686806     0.5194635753
Bq         1.7373280952     1.2964750674     1.1886199940
Bq         1.9427590098     1.4102963396     0.4238698012
Bq         1.7116492309     1.2822474083     1.2842137681
Bq         1.9684378741     1.4245239986     0.3282760271
Bq         1.8400435525     1.3533857035     0.8062448976
Bq         1.8106736376     1.4381407385     0.9155792113
Bq         1.8620313663     1.4665960565     0.7243916631
Bq         1.7849947733     1.4239130794     1.0111729854
Bq         1.8877102306     1.4808237156     0.6287978890
Bq         1.7593159090     1.4096854204     1.1067667595
Bq         1.9133890949     1.4950513746     0.5332041149
Bq         1.7336370447     1.3954577614     1.2023605335
Bq         1.9390679592     1.5092790336     0.4376103408
Bq         1.7079581803     1.3812301024     1.2979543076
Bq         1.9647468236     1.5235066926     0.3420165667
Bq         1.8363525019     1.4523683975     0.8199854372
Bq         1.8069825871     1.5371234325     0.9293197508
Bq         1.8583403157     1.5655787506     0.7381322026
Bq         1.7813037228     1.5228957735     1.0249135249
Bq         1.8840191801     1.5798064096     0.6425384285
Bq         1.7556248584     1.5086681145     1.1205072990
Bq         1.9096980444     1.5940340686     0.5469446544
Bq         1.7299459941     1.4944404554     1.2161010731
Bq         1.9353769087     1.6082617277     0.4513508803
Bq         1.7042671298     1.4802127964     1.3116948472
Bq         1.9610557730     1.6224893867     0.3557571063
Bq         1.8326614514     1.5513510915     0.8337259767
Bq         1.8032915366     1.6361061265     0.9430602904
Bq         1.8546492652     1.6645614446     0.7518727422
Bq         1.7776126722     1.6218784675     1.0386540645
Bq         1.8803281295     1.6787891036     0.6562789681
Bq         1.7519338079     1.6076508085     1.1342478386
Bq         1.9060069938     1.6930167627     0.5606851940
Bq         1.7262549436     1.5934231495     1.2298416127
Bq         1.9316858582     1.7072444217     0.4650914199
Bq         1.7005760793     1.5791954904     1.3254353868
Bq         1.9573647225     1.7214720807     0.3694976458
Bq         1.8289704009     1.6503337856     0.8474665163
Bq         1.7996004860     1.7350888206     0.9568008299
Bq         1.8509582147     1.7635441386     0.7656132817
Bq         1.7739216217     1.7208611616     1.0523946040
Bq         1.8766370790     1.7777717977     0.6700195077
Bq         1.7482427574     1.7066335025     1.1479883781
Bq         1.9023159433     1.7919994567     0.5744257336
Bq         1.7225638930     1.6924058435     1.2435821522
Bq         1.9279948076     1.8062271157     0.4788319595
Bq         1.6968850287     1.6781781845     1.3391759263
Bq         1.9536736720     1.8204547748     0.3832381854
Bq         1.8252793503     1.7493164796     0.8612070558
Bq         1.7959094355     1.8340715146     0.9705413695
Bq         1.8472671641     1.8625268327     0.7793538213
Bq         1.7702305712     1.8198438556     1.0661351436
Bq         1.8729460284     1.8767544917     0.6837600472
Bq         1.7445517068     1.8056161966     1.1617289177
Bq         1.8986248928     1.8909821507     0.5881662731
Bq         1.7188728425     1.7913885375     1.2573226918
Bq         1.9243037571     1.9052098098     0.4925724990
Bq         1.6931939782     1.7771608785     1.3529164659
Bq         1.9499826214     1.9194374688     0.3969787249
Bq         1.8215882998     1.8482991736     0.8749475954
Bq         1.7922183849     1.9330542087     0.9842819091
Bq         1.8435761136     1.9615095267     0.7930943609
Bq         1.7665395206     1.9188265496     1.0798756832
Bq         1.8692549779     1.9757371857     0.6975005868
Bq         1.7408606563     1.9045988906     1.1754694572
Bq         1.8949338422     1.9899648448     0.6019068127
Bq         1.7151817920     1.8903712316     1.2710632313
Bq         1.9206127066     2.0041925038     0.5063130386
Bq         1.6895029277     1.8761435725     1.3666570054
Bq         1.9462915709     2.0184201628     0.4107192645
Bq         1.8178972493     1.9472818677     0.8886881350
Bq         1.7885273344     2.0320369027     0.9980224486
Bq         1.8398850631     2.0604922207     0.8068349004
Bq         1.7628484701     2.0178092437     1.0936162227
Bq         1.8655639274     2.0747198798     0.7112411263
Bq         1.7371696058     2.0035815846     1.1892099968
Bq         1.8912427917     2.0889475388     0.6156473522
Bq         1.7114907414     1.9893539256     1.2848037709
Bq         1.9169216560     2.1031751978     0.5200535781
Bq         1.6858118771     1.9751262666     1.3803975450
Bq         1.9426005203     2.1174028569     0.4244598040
Bq         1.8142061987     2.0462645617     0.9024286745
Bq         1.7848362839     2.1310195967     1.0117629882
Bq         1.8361940125     2.1594749148     0.8205754400
Bq         1.7591574196     2.1167919377     1.1073567623
Bq         1.8618728768     2.1737025738     0.7249816659
Bq         1.7334785552     2.1025642787     1.2029505364
Bq         1.8875517412     2.1879302328     0.6293878918
Bq         1.7077996909     2.0883366196     1.2985443105
Bq         1.9132306055     2.2021578919     0.5337941177
Bq         1.6821208266     2.0741089606     1.3941380846
Bq         1.9389094698     2.2163855509     0.4382003436
Bq         1.8105151482     2.1452472558     0.9161692141
Bq         2.0659650607    -2.8181151051     0.3506787920
Bq         2.1173227893    -2.7896597870     0.1594912438
Bq         2.0402861964    -2.8323427641     0.4462725661
Bq         2.1430016537    -2.7754321280     0.0638974697
Bq         2.0146073320    -2.8465704231     0.5418663402
Bq         2.1686805180    -2.7612044690    -0.0316963044
Bq         1.9889284677    -2.8607980821     0.6374601143
Bq         2.1943593823    -2.7469768099    -0.1272900785
Bq         1.9632496034    -2.8750257412     0.7330538884
Bq         2.2200382466    -2.7327491509    -0.2228838526
Bq         2.0916439250    -2.8038874460     0.2550850179
Bq         2.0622740102    -2.7191324110     0.3644193316
Bq         2.1136317388    -2.6906770930     0.1732317834
Bq         2.0365951458    -2.7333600701     0.4600131057
Bq         2.1393106031    -2.6764494339     0.0776380093
Bq         2.0109162815    -2.7475877291     0.5556068798
Bq         2.1649894674    -2.6622217749    -0.0179557648
Bq         1.9852374172    -2.7618153881     0.6512006539
Bq         2.1906683318    -2.6479941159    -0.1135495389
Bq         1.9595585529    -2.7760430471     0.7467944280
Bq         2.2163471961    -2.6337664569    -0.2091433130
Bq         2.0879528745    -2.7049047520     0.2688255575
Bq         2.0585829596    -2.6201497170     0.3781598711
Bq         2.1099406883    -2.5916943989     0.1869723229
Bq         2.0329040953    -2.6343773760     0.4737536452
Bq         2.1356195526    -2.5774667399     0.0913785489
Bq         2.0072252310    -2.6486050350     0.5693474193
Bq         2.1612984169    -2.5632390809    -0.0042152252
Bq         1.9815463667    -2.6628326941     0.6649411934
Bq         2.1869772812    -2.5490114219    -0.0998089993
Bq         1.9558675023    -2.6770603531     0.7605349675
Bq         2.2126561456    -2.5347837628    -0.1954027734
Bq         2.0842618239    -2.6059220580     0.2825660970
Bq         2.0548919091    -2.5211670230     0.3919004107
Bq         2.1062496377    -2.4927117049     0.2007128625
Bq         2.0292130448    -2.5353946820     0.4874941848
Bq         2.1319285021    -2.4784840459     0.1051190884
Bq         2.0035341804    -2.5496223410     0.5830879589
Bq         2.1576073664    -2.4642563868     0.0095253143
Bq         1.9778553161    -2.5638500000     0.6786817330
Bq         2.1832862307    -2.4500287278    -0.0860684598
Bq         1.9521764518    -2.5780776591     0.7742755071
Bq         2.2089650950    -2.4358010688    -0.1816622339
Bq         2.0805707734    -2.5069393639     0.2963066366
Bq         2.0512008585    -2.4221843289     0.4056409503
Bq         2.1025585872    -2.3937290109     0.2144534021
Bq         2.0255219942    -2.4364119879     0.5012347243
Bq         2.1282374515    -2.3795013518     0.1188596280
Bq         1.9998431299    -2.4506396470     0.5968284984
Bq         2.1539163158    -2.3652736928     0.0232658539
Bq         1.9741642656    -2.4648673060     0.6924222725
Bq         2.1795951802    -2.3510460338    -0.0723279202
Bq         1.9484854013    -2.4790949650     0.7880160466
Bq         2.2052740445    -2.3368183748    -0.1679216943
Bq         2.0768797229    -2.4079566699     0.3100471762
Bq         2.0475098080    -2.3232016349     0.4193814898
Bq         2.0988675367    -2.2947463168     0.2281939416
Bq         2.0218309437    -2.3374292939     0.5149752639
Bq         2.1245464010    -2.2805186578     0.1326001675
Bq         1.9961520794    -2.3516569529     0.6105690380
Bq         2.1502252653    -2.2662909988     0.0370063934
Bq         1.9704732150    -2.3658846120     0.7061628121
Bq         2.1759041296    -2.2520633397    -0.0585873807
Bq         1.9447943507    -2.3801122710     0.8017565862
Bq         2.2015829939    -2.2378356807    -0.1541811548
Bq         2.0731886723    -2.3089739759     0.3237877157
Bq         2.0438187575    -2.2242189408     0.4331220294
Bq         2.0951764861    -2.1957636228     0.2419344812
Bq         2.0181398932    -2.2384465999     0.5287158035
Bq         2.1208553504    -2.1815359638     0.1463407071
Bq         1.9924610288    -2.2526742589     0.6243095776
Bq         2.1465342148    -2.1673083047     0.0507469330
Bq         1.9667821645    -2.2669019179     0.7199033517
Bq         2.1722130791    -2.1530806457    -0.0448468411
Bq         1.9411033002    -2.2811295770     0.8154971258
Bq         2.1978919434    -2.1388529867    -0.1404406152
Bq         2.0694976218    -2.2099912818     0.3375282553
Bq         2.0401277069    -2.1252362468     0.4468625689
Bq         2.0914854356    -2.0967809288     0.2556750207
Bq         2.0144488426    -2.1394639058     0.5424563430
Bq         2.1171642999    -2.0825532697     0.1600812466
Bq         1.9887699783    -2.1536915649     0.6380501171
Bq         2.1428431642    -2.0683256107     0.0644874726
Bq         1.9630911140    -2.1679192239     0.7336438912
Bq         2.1685220286    -2.0540979517    -0.0311063015
Bq         1.9374122497    -2.1821468829     0.8292376653
Bq         2.1942008929    -2.0398702926    -0.1267000756
Bq         2.0658065713    -2.1110085878     0.3512687948
Bq         2.0364366564    -2.0262535528     0.4606031085
Bq         2.0877943851    -1.9977982347     0.2694155603
Bq         2.0107577921    -2.0404812118     0.5561968826
Bq         2.1134732494    -1.9835705757     0.1738217862
Bq         1.9850789278    -2.0547088708     0.6517906567
Bq         2.1391521137    -1.9693429167     0.0782280121
Bq         1.9594000634    -2.0689365299     0.7473844308
Bq         2.1648309780    -1.9551152576    -0.0173657620

1
2
3
4
5
6
7
8
9
10
11
12
13
14
15
16
17
18
19
20
21
22
23
24
25
26
27
28
29
30
31
32
33
34
35
36
37
38
39
40
41
42
43
44
45
46
47
48
49
50
51
52
53
54
55
56
57
58
59
60
61
62
63
64
65
66
67
68
69
70
71
72
73
74
75
76
77
78
79
80
81
82
83
84
85
86
87
88
89
90
91
92
93
94
95
96
97
98
99
100
101
102
103
104
105
106
107
108
109
110
111
112
113
114
115
116
117
118
119
120
121
122
123
124
125
126
127
128
129
130
131
132
133
134
135
136
137
138
139
140
141
142
143
144
145
146
147
148
149
150
151
152
153
154
155
156
157
158
159
160
161
162
163
164
165
166
167
168
169
170
171
172
173
174
175
176
177
178
179
180
181
182
183
184
185
186
187
188
189
190
191
192
193
194
195
196
197
198
199
200
201
202
203
204
205
206
207
208
209
210
211
212
213
214
215
216
217
218
219
220
221
222
223
224
225
226
227
228
229
230
231
232
233
234
235
236

