%nproc=8
%mem=1000MB
# rb3lyp/6-311+g** NMR geom=connectivity

Title

0 1
C    -4.0500558   -0.5771862    0.8136712
H    -5.0263804   -1.0082727    1.0024760
C    -3.9381552    0.6617804    0.2400876
H    -4.8252424    1.2338890   -0.0111295
C    -2.6768410    1.2433246    0.0057578
C    -1.4974121    0.5051527    0.2848253
C    -1.6508332   -0.7338728    0.9404026
H    -0.7713646   -1.2730967    1.2633753
C    -2.8898548   -1.2624035    1.1994307
H    -2.9683706   -2.2124563    1.7152676
C    -2.5773185    2.5963696   -0.4192930
H    -3.4870728    3.1412239   -0.6474055
C    -1.3741895    3.2147896   -0.4364030
H    -1.2997315    4.2742019   -0.6578144
C    -0.1719488    2.4994090   -0.1734588
C    -0.2043917    1.1018437    0.0192689
C     1.0513491    3.2042560   -0.0676222
H     1.0427344    4.2819499   -0.1896997
C     2.1942091    2.5487446    0.2579577
H     3.1168527    3.0912848    0.4334727
C     2.2216473    1.1336562    0.2934990
C     1.0486931    0.3945528    0.0302412
C     3.4483363    0.4614633    0.5573939
H     4.3095794    1.0606054    0.8334846
C     3.5427346   -0.8855926    0.4749463
H     4.4731467   -1.3939704    0.7038822
C     2.4490052   -1.6474447   -0.0196319
C     1.2150704   -1.0057258   -0.3013573
C     0.2531113   -1.7434440   -1.0216591
H    -0.6541356   -1.2535051   -1.3462847
C     0.4494193   -3.0628597   -1.3413779
H    -0.3083162   -3.5944309   -1.9054060
C     1.6251726   -3.7207967   -0.9552541
H     1.7670048   -4.7687404   -1.1927019
C     2.6109872   -3.0144177   -0.3183050
H     3.5525612   -3.4902813   -0.0646367
Bq         0.4215621638    -2.2669019179     0.3048188430
Bq         0.6269930783    -2.1530806457    -0.4599313497
Bq         0.3958832994    -2.2811295770     0.4004126171
Bq         0.6526719427    -2.1388529867    -0.5555251238
Bq         0.5242776211    -2.2099912818    -0.0775562533
Bq         0.4949077062    -2.1252362468     0.0317780603
Bq         0.5462654348    -2.0967809288    -0.1594094879
Bq         0.4692288419    -2.1394639058     0.1273718344
Bq         0.5719442992    -2.0825532697    -0.2550032620
Bq         0.4435499776    -2.1536915649     0.2229656085
Bq         0.5976231635    -2.0683256107    -0.3505970361
Bq         0.4178711132    -2.1679192239     0.3185593826
Bq         0.6233020278    -2.0540979517    -0.4461908102
Bq         0.3921922489    -2.1821468829     0.4141531567
Bq         0.6489808921    -2.0398702926    -0.5417845843
Bq         0.5205865705    -2.1110085878    -0.0638157138
Bq         0.4912166557    -2.0262535528     0.0455185999
Bq         0.5425743843    -1.9977982347    -0.1456689483
Bq         0.4655377913    -2.0404812118     0.1411123740
Bq         0.5682532486    -1.9835705757    -0.2412627224
Bq         0.4398589270    -2.0547088708     0.2367061481
Bq         0.5939321130    -1.9693429167    -0.3368564965
Bq         0.4141800627    -2.0689365299     0.3322999222
Bq         0.6196109773    -1.9551152576    -0.4324502706
Bq         0.3885011984    -2.0831641889     0.4278936962
Bq         0.6452898416    -1.9408875986    -0.5280440447
Bq         0.5168955200    -2.0120258937    -0.0500751742
Bq         0.4875256051    -1.9272708587     0.0592591394
Bq         0.5388833338    -1.8988155407    -0.1319284088
Bq         0.4618467408    -1.9414985178     0.1548529135
Bq         0.5645621981    -1.8845878817    -0.2275221829
Bq         0.4361678765    -1.9557261768     0.2504466876
Bq         0.5902410624    -1.8703602226    -0.3231159570
Bq         0.4104890122    -1.9699538358     0.3460404617
Bq         0.6159199267    -1.8561325636    -0.4187097310
Bq         0.3848101478    -1.9841814949     0.4416342358
Bq         0.6415987911    -1.8419049046    -0.5143035051
Bq         0.5132044694    -1.9130431997    -0.0363346347
Bq         0.4838345546    -1.8282881647     0.0729996790
Bq         0.5351922832    -1.7998328466    -0.1181878692
Bq         0.4581556903    -1.8425158237     0.1685934531
Bq         0.5608711476    -1.7856051876    -0.2137816433
Bq         0.4324768259    -1.8567434828     0.2641872272
Bq         0.5865500119    -1.7713775286    -0.3093754174
Bq         0.4067979616    -1.8709711418     0.3597810013
Bq         0.6122288762    -1.7571498696    -0.4049691915
Bq         0.3811190973    -1.8851988008     0.4553747754
Bq         0.6379077405    -1.7429222105    -0.5005629656
Bq         0.5095134189    -1.8140605057    -0.0225940951
Bq         0.4801435041    -1.7293054707     0.0867402185
Bq         0.5315012327    -1.7008501526    -0.1044473296
Bq         0.4544646397    -1.7435331297     0.1823339926
Bq         0.5571800970    -1.6866224936    -0.2000411037
Bq         0.4287857754    -1.7577607887     0.2779277667
Bq         0.5828589613    -1.6723948346    -0.2956348778
Bq         0.4031069111    -1.7719884478     0.3735215408
Bq         0.6085378257    -1.6581671755    -0.3912286519
Bq         0.3774280468    -1.7862161068     0.4691153149
Bq         0.6342166900    -1.6439395165    -0.4868224260
Bq         0.5058223684    -1.7150778116    -0.0088535556
Bq         0.4764524535    -1.6303227766     0.1004807581
Bq         0.5278101822    -1.6018674586    -0.0907067901
Bq         0.4507735892    -1.6445504357     0.1960745322
Bq         0.5534890465    -1.5876397995    -0.1863005642
Bq         0.4250947249    -1.6587780947     0.2916683063
Bq         0.5791679108    -1.5734121405    -0.2818943383
Bq         0.3994158606    -1.6730057537     0.3872620804
Bq         0.6048467751    -1.5591844815    -0.3774881124
Bq         0.3737369962    -1.6872334127     0.4828558545
Bq         0.6305256395    -1.5449568225    -0.4730818865
Bq         0.5021313178    -1.6160951176     0.0048869840
Bq         0.4727614030    -1.5313400826     0.1142212977
Bq         0.5241191316    -1.5028847645    -0.0769662505
Bq         0.4470825387    -1.5455677416     0.2098150718
Bq         0.5497979960    -1.4886571055    -0.1725600246
Bq         0.4214036743    -1.5597954007     0.3054088458
Bq         0.5754768603    -1.4744294465    -0.2681537987
Bq         0.3957248100    -1.5740230597     0.4010026199
Bq         0.6011557246    -1.4602017875    -0.3637475728
Bq         0.3700459457    -1.5882507187     0.4965963940
Bq         0.6268345889    -1.4459741284    -0.4593413469
Bq         0.4984402673    -1.5171124236     0.0186275236
Bq         0.4690703524    -1.4323573886     0.1279618372
Bq         0.5204280811    -1.4039020705    -0.0632257110
Bq         0.4433914881    -1.4465850476     0.2235556113
Bq         0.5461069454    -1.3896744115    -0.1588194851
Bq         0.4177126238    -1.4608127066     0.3191493854
Bq         0.5717858097    -1.3754467524    -0.2544132592
Bq         0.3920337595    -1.4750403656     0.4147431595
Bq         0.5974646741    -1.3612190934    -0.3500070333
Bq         0.3663548952    -1.4892680247     0.5103369336
Bq         0.6231435384    -1.3469914344    -0.4456008073
Bq         0.4947492168    -1.4181297295     0.0323680631
Bq         0.4653793019    -1.3333746945     0.1417023768
Bq         0.5167370306    -1.3049193765    -0.0494851714
Bq         0.4397004376    -1.3476023536     0.2372961509
Bq         0.5424158949    -1.2906917174    -0.1450789455
Bq         0.4140215733    -1.3618300126     0.3328899250
Bq         0.5680947592    -1.2764640584    -0.2406727196
Bq         0.3883427089    -1.3760576716     0.4284836991
Bq         0.5937736235    -1.2622363994    -0.3362664937
Bq         0.3626638446    -1.3902853306     0.5240774732
Bq         0.6194524878    -1.2480087404    -0.4318602678
Bq         0.4910581662    -1.3191470355     0.0461086027
Bq         0.4616882514    -1.2343920005     0.1554429163
Bq         0.5130459800    -1.2059366824    -0.0357446319
Bq         0.4360093871    -1.2486196595     0.2510366904
Bq         0.5387248443    -1.1917090234    -0.1313384059
Bq         0.4103305227    -1.2628473185     0.3466304645
Bq         0.5644037087    -1.1774813644    -0.2269321800
Bq         0.3846516584    -1.2770749776     0.4422242386
Bq         0.5900825730    -1.1632537054    -0.3225259541
Bq         0.3589727941    -1.2913026366     0.5378180127
Bq         0.6157614373    -1.1490260463    -0.4181197282
Bq         0.4873671157    -1.2201643415     0.0598491422
Bq         0.4579972008    -1.1354093065     0.1691834559
Bq         0.5093549295    -1.1069539884    -0.0220040923
Bq         0.4323183365    -1.1496369655     0.2647772300
Bq         0.5350337938    -1.0927263294    -0.1175978664
Bq         0.4066394722    -1.1638646245     0.3603710041
Bq         0.5607126581    -1.0784986703    -0.2131916405
Bq         0.3809606079    -1.1780922835     0.4559647782
Bq         0.5863915225    -1.0642710113    -0.3087854146
Bq         0.3552817436    -1.1923199426     0.5515585523
Bq         0.6120703868    -1.0500433523    -0.4043791887
Bq         0.4836760652    -1.1211816474     0.0735896818
Bq         0.4543061503    -1.0364266124     0.1829239955
Bq         0.5056638790    -1.0079712944    -0.0082635527
Bq         0.4286272860    -1.0506542714     0.2785177695
Bq         0.5313427433    -0.9937436353    -0.1038573268
Bq         0.4029484217    -1.0648819305     0.3741115436
Bq         0.5570216076    -0.9795159763    -0.1994511009
Bq         0.3772695573    -1.0791095895     0.4697053177
Bq         0.5827004719    -0.9652883173    -0.2950448750
Bq         0.3515906930    -1.0933372485     0.5652990918
Bq         0.6083793362    -0.9510606583    -0.3906386491
Bq         0.4799850146    -1.0221989534     0.0873302214
Bq         0.4506150998    -0.9374439184     0.1966645350
Bq         0.5019728284    -0.9089886003     0.0054769868
Bq         0.4249362355    -0.9516715774     0.2922583091
Bq         0.5276516927    -0.8947609413    -0.0901167873
Bq         0.3992573711    -0.9658992364     0.3878520832
Bq         0.5533305571    -0.8805332823    -0.1857105614
Bq         0.3735785068    -0.9801268955     0.4834458573
Bq         0.5790094214    -0.8663056232    -0.2813043355
Bq         0.3478996425    -0.9943545545     0.5790396314
Bq         0.6046882857    -0.8520779642    -0.3768981096
Bq         0.4762939641    -0.9232162594     0.1010707609
Bq         0.4469240492    -0.8384612243     0.2104050746
Bq         0.4982817779    -0.8100059063     0.0192175264
Bq         0.4212451849    -0.8526888834     0.3059988487
Bq         0.5239606422    -0.7957782473    -0.0763762477
Bq         0.3955663206    -0.8669165424     0.4015926228
Bq         0.5496395065    -0.7815505882    -0.1719700218
Bq         0.3698874563    -0.8811442014     0.4971863969
Bq         0.5753183709    -0.7673229292    -0.2675637959
Bq         0.3442085919    -0.8953718605     0.5927801710
Bq         0.6009972352    -0.7530952702    -0.3631575700
Bq         0.4726029136    -0.8242335653     0.1148113005
Bq         0.4432329987    -0.7394785303     0.2241456141
Bq         0.4945907273    -0.7110232123     0.0329580659
Bq         0.4175541344    -0.7537061893     0.3197393882
Bq         0.5202695917    -0.6967955532    -0.0626357082
Bq         0.3918752701    -0.7679338484     0.4153331623
Bq         0.5459484560    -0.6825678942    -0.1582294822
Bq         0.3661964057    -0.7821615074     0.5109269364
Bq         0.5716273203    -0.6683402352    -0.2538232563
Bq         0.3405175414    -0.7963891664     0.6065207105
Bq         0.5973061846    -0.6541125761    -0.3494170304
Bq         0.4689118630    -0.7252508713     0.1285518400
Bq         0.4395419482    -0.6404958363     0.2378861537
Bq         0.4908996768    -0.6120405182     0.0466986055
Bq         0.4138630838    -0.6547234953     0.3334799278
Bq         0.5165785411    -0.5978128592    -0.0488951686
Bq         0.3881842195    -0.6689511543     0.4290737019
Bq         0.5422574055    -0.5835852002    -0.1444889427
Bq         0.3625053552    -0.6831788134     0.5246674760
Bq         0.5679362698    -0.5693575411    -0.2400827168
Bq         0.3368264909    -0.6974064724     0.6202612501
Bq         0.5936151341    -0.5551298821    -0.3356764909
Bq         0.4652208125    -0.6262681772     0.1422923796
Bq         0.4358508976    -0.5415131422     0.2516266932
Bq         0.4872086263    -0.5130578242     0.0604391451
Bq         0.4101720333    -0.5557408013     0.3472204673
Bq         0.5128874906    -0.4988301652    -0.0351546290
Bq         0.3844931690    -0.5699684603     0.4428142414
Bq         0.5385663549    -0.4846025061    -0.1307484031
Bq         0.3588143047    -0.5841961193     0.5384080155
Bq         0.5642452192    -0.4703748471    -0.2263421772
Bq         0.3331354403    -0.5984237784     0.6340017896
Bq         0.5899240836    -0.4561471881    -0.3219359513
Bq         0.4615297620    -0.5272854832     0.1560329192
Bq         0.4321598471    -0.4425304482     0.2653672328
Bq         0.4835175757    -0.4140751301     0.0741796846
Bq         0.4064809828    -0.4567581072     0.3609610069
Bq         0.5091964401    -0.3998474711    -0.0214140895
Bq         0.3808021185    -0.4709857663     0.4565547810
Bq         0.5348753044    -0.3856198121    -0.1170078636
Bq         0.3551232541    -0.4852134253     0.5521485551
Bq         0.5605541687    -0.3713921531    -0.2126016377

1
2
3
4
5
6
7
8
9
10
11
12
13
14
15
16
17
18
19
20
21
22
23
24
25
26
27
28
29
30
31
32
33
34
35
36
37
38
39
40
41
42
43
44
45
46
47
48
49
50
51
52
53
54
55
56
57
58
59
60
61
62
63
64
65
66
67
68
69
70
71
72
73
74
75
76
77
78
79
80
81
82
83
84
85
86
87
88
89
90
91
92
93
94
95
96
97
98
99
100
101
102
103
104
105
106
107
108
109
110
111
112
113
114
115
116
117
118
119
120
121
122
123
124
125
126
127
128
129
130
131
132
133
134
135
136
137
138
139
140
141
142
143
144
145
146
147
148
149
150
151
152
153
154
155
156
157
158
159
160
161
162
163
164
165
166
167
168
169
170
171
172
173
174
175
176
177
178
179
180
181
182
183
184
185
186
187
188
189
190
191
192
193
194
195
196
197
198
199
200
201
202
203
204
205
206
207
208
209
210
211
212
213
214
215
216
217
218
219
220
221
222
223
224
225
226
227
228
229
230
231
232
233
234
235
236

