%nproc=8
%mem=1000MB
# rb3lyp/6-311+g** NMR geom=connectivity

Title

0 1
C    -4.0500558   -0.5771862    0.8136712
H    -5.0263804   -1.0082727    1.0024760
C    -3.9381552    0.6617804    0.2400876
H    -4.8252424    1.2338890   -0.0111295
C    -2.6768410    1.2433246    0.0057578
C    -1.4974121    0.5051527    0.2848253
C    -1.6508332   -0.7338728    0.9404026
H    -0.7713646   -1.2730967    1.2633753
C    -2.8898548   -1.2624035    1.1994307
H    -2.9683706   -2.2124563    1.7152676
C    -2.5773185    2.5963696   -0.4192930
H    -3.4870728    3.1412239   -0.6474055
C    -1.3741895    3.2147896   -0.4364030
H    -1.2997315    4.2742019   -0.6578144
C    -0.1719488    2.4994090   -0.1734588
C    -0.2043917    1.1018437    0.0192689
C     1.0513491    3.2042560   -0.0676222
H     1.0427344    4.2819499   -0.1896997
C     2.1942091    2.5487446    0.2579577
H     3.1168527    3.0912848    0.4334727
C     2.2216473    1.1336562    0.2934990
C     1.0486931    0.3945528    0.0302412
C     3.4483363    0.4614633    0.5573939
H     4.3095794    1.0606054    0.8334846
C     3.5427346   -0.8855926    0.4749463
H     4.4731467   -1.3939704    0.7038822
C     2.4490052   -1.6474447   -0.0196319
C     1.2150704   -1.0057258   -0.3013573
C     0.2531113   -1.7434440   -1.0216591
H    -0.6541356   -1.2535051   -1.3462847
C     0.4494193   -3.0628597   -1.3413779
H    -0.3083162   -3.5944309   -1.9054060
C     1.6251726   -3.7207967   -0.9552541
H     1.7670048   -4.7687404   -1.1927019
C     2.6109872   -3.0144177   -0.3183050
H     3.5525612   -3.4902813   -0.0646367
Bq         1.9975158317    -2.6479941159    -0.1654351025
Bq         1.7664060528    -2.7760430471     0.6949088644
Bq         2.0231946960    -2.6337664569    -0.2610288766
Bq         1.8948003744    -2.7049047520     0.2169399939
Bq         1.8654304595    -2.6201497170     0.3262743076
Bq         1.9167881882    -2.5916943989     0.1350867594
Bq         1.8397515952    -2.6343773760     0.4218680817
Bq         1.9424670525    -2.5774667399     0.0394929853
Bq         1.8140727309    -2.6486050350     0.5174618557
Bq         1.9681459168    -2.5632390809    -0.0561007888
Bq         1.7883938666    -2.6628326941     0.6130556298
Bq         1.9938247811    -2.5490114219    -0.1516945629
Bq         1.7627150022    -2.6770603531     0.7086494039
Bq         2.0195036455    -2.5347837628    -0.2472883370
Bq         1.8911093238    -2.6059220580     0.2306805335
Bq         1.8617394090    -2.5211670230     0.3400148471
Bq         1.9130971376    -2.4927117049     0.1488272989
Bq         1.8360605447    -2.5353946820     0.4356086212
Bq         1.9387760020    -2.4784840459     0.0532335248
Bq         1.8103816803    -2.5496223410     0.5312023953
Bq         1.9644548663    -2.4642563868    -0.0423602493
Bq         1.7847028160    -2.5638500000     0.6267961694
Bq         1.9901337306    -2.4500287278    -0.1379540234
Bq         1.7590239517    -2.5780776591     0.7223899435
Bq         2.0158125949    -2.4358010688    -0.2335477975
Bq         1.8874182733    -2.5069393639     0.2444210730
Bq         1.8580483585    -2.4221843289     0.3537553867
Bq         1.9094060871    -2.3937290109     0.1625678385
Bq         1.8323694941    -2.4364119879     0.4493491608
Bq         1.9350849514    -2.3795013518     0.0669740644
Bq         1.8066906298    -2.4506396470     0.5449429349
Bq         1.9607638157    -2.3652736928    -0.0286197097
Bq         1.7810117655    -2.4648673060     0.6405367090
Bq         1.9864426801    -2.3510460338    -0.1242134838
Bq         1.7553329012    -2.4790949650     0.7361304831
Bq         2.0121215444    -2.3368183748    -0.2198072579
Bq         1.8837272228    -2.4079566699     0.2581616126
Bq         1.8543573079    -2.3232016349     0.3674959262
Bq         1.9057150366    -2.2947463168     0.1763083780
Bq         1.8286784436    -2.3374292939     0.4630897003
Bq         1.9313939009    -2.2805186578     0.0807146040
Bq         1.8029995793    -2.3516569529     0.5586834744
Bq         1.9570727652    -2.2662909988    -0.0148791701
Bq         1.7773207150    -2.3658846120     0.6542772485
Bq         1.9827516295    -2.2520633397    -0.1104729442
Bq         1.7516418506    -2.3801122710     0.7498710226
Bq         2.0084304939    -2.2378356807    -0.2060667183
Bq         1.8800361722    -2.3089739759     0.2719021521
Bq         1.8506662574    -2.2242189408     0.3812364658
Bq         1.9020239860    -2.1957636228     0.1900489176
Bq         1.8249873931    -2.2384465999     0.4768302399
Bq         1.9277028504    -2.1815359638     0.0944551435
Bq         1.7993085287    -2.2526742589     0.5724240140
Bq         1.9533817147    -2.1673083047    -0.0011386306
Bq         1.7736296644    -2.2669019179     0.6680177881
Bq         1.9790605790    -2.1530806457    -0.0967324047
Bq         1.7479508001    -2.2811295770     0.7636115622
Bq         2.0047394433    -2.1388529867    -0.1923261788
Bq         1.8763451217    -2.2099912818     0.2856426917
Bq         1.8469752068    -2.1252362468     0.3949770054
Bq         1.8983329355    -2.0967809288     0.2037894572
Bq         1.8212963425    -2.1394639058     0.4905707794
Bq         1.9240117998    -2.0825532697     0.1081956831
Bq         1.7956174782    -2.1536915649     0.5861645535
Bq         1.9496906641    -2.0683256107     0.0126019090
Bq         1.7699386139    -2.1679192239     0.6817583276
Bq         1.9753695285    -2.0540979517    -0.0829918651
Bq         1.7442597496    -2.1821468829     0.7773521017
Bq         2.0010483928    -2.0398702926    -0.1785856392
Bq         1.8726540712    -2.1110085878     0.2993832313
Bq         1.8432841563    -2.0262535528     0.4087175449
Bq         1.8946418850    -1.9977982347     0.2175299967
Bq         1.8176052920    -2.0404812118     0.5043113190
Bq         1.9203207493    -1.9835705757     0.1219362226
Bq         1.7919264277    -2.0547088708     0.5999050931
Bq         1.9459996136    -1.9693429167     0.0263424485
Bq         1.7662475633    -2.0689365299     0.6954988672
Bq         1.9716784779    -1.9551152576    -0.0692513256
Bq         1.7405686990    -2.0831641889     0.7910926413
Bq         1.9973573422    -1.9408875986    -0.1648450997
Bq         1.8689630206    -2.0120258937     0.3131237708
Bq         1.8395931058    -1.9272708587     0.4224580845
Bq         1.8909508344    -1.8988155407     0.2312705363
Bq         1.8139142415    -1.9414985178     0.5180518586
Bq         1.9166296987    -1.8845878817     0.1356767622
Bq         1.7882353771    -1.9557261768     0.6136456327
Bq         1.9423085631    -1.8703602226     0.0400829881
Bq         1.7625565128    -1.9699538358     0.7092394068
Bq         1.9679874274    -1.8561325636    -0.0555107860
Bq         1.7368776485    -1.9841814949     0.8048331808
Bq         1.9936662917    -1.8419049046    -0.1511045601
Bq         1.8652719701    -1.9130431997     0.3268643104
Bq         1.8359020552    -1.8282881647     0.4361986240
Bq         1.8872597839    -1.7998328466     0.2450110758
Bq         1.8102231909    -1.8425158237     0.5317923981
Bq         1.9129386482    -1.7856051876     0.1494173017
Bq         1.7845443266    -1.8567434828     0.6273861722
Bq         1.9386175125    -1.7713775286     0.0538235277
Bq         1.7588654623    -1.8709711418     0.7229799463
Bq         1.9642963769    -1.7571498696    -0.0417702464
Bq         1.7331865980    -1.8851988008     0.8185737204
Bq         1.9899752412    -1.7429222105    -0.1373640205
Bq         1.8615809196    -1.8140605057     0.3406048499
Bq         1.8322110047    -1.7293054707     0.4499391636
Bq         1.8835687334    -1.7008501526     0.2587516154
Bq         1.8065321404    -1.7435331297     0.5455329377
Bq         1.9092475977    -1.6866224936     0.1631578413
Bq         1.7808532761    -1.7577607887     0.6411267118
Bq         1.9349264620    -1.6723948346     0.0675640672
Bq         1.7551744117    -1.7719884478     0.7367204859
Bq         1.9606053263    -1.6581671755    -0.0280297069
Bq         1.7294955474    -1.7862161068     0.8323142600
Bq         1.9862841906    -1.6439395165    -0.1236234810
Bq         1.8578898690    -1.7150778116     0.3543453895
Bq         1.8285199542    -1.6303227766     0.4636797031
Bq         1.8798776828    -1.6018674586     0.2724921550
Bq         1.8028410898    -1.6445504357     0.5592734772
Bq         1.9055565471    -1.5876397995     0.1768983809
Bq         1.7771622255    -1.6587780947     0.6548672513
Bq         1.9312354115    -1.5734121405     0.0813046068
Bq         1.7514833612    -1.6730057537     0.7504610254
Bq         1.9569142758    -1.5591844815    -0.0142891673
Bq         1.7258044969    -1.6872334127     0.8460547995
Bq         1.9825931401    -1.5449568225    -0.1098829414
Bq         1.8541988185    -1.6160951176     0.3680859291
Bq         1.8248289036    -1.5313400826     0.4774202427
Bq         1.8761866323    -1.5028847645     0.2862326945
Bq         1.7991500393    -1.5455677416     0.5730140168
Bq         1.9018654966    -1.4886571055     0.1906389204
Bq         1.7734711750    -1.5597954007     0.6686077909
Bq         1.9275443609    -1.4744294465     0.0950451463
Bq         1.7477923107    -1.5740230597     0.7642015650
Bq         1.9532232252    -1.4602017875    -0.0005486278
Bq         1.7221134463    -1.5882507187     0.8597953391
Bq         1.9789020896    -1.4459741284    -0.0961424019
Bq         1.8505077680    -1.5171124236     0.3818264686
Bq         1.8211378531    -1.4323573886     0.4911607823
Bq         1.8724955817    -1.4039020705     0.2999732341
Bq         1.7954589888    -1.4465850476     0.5867545564
Bq         1.8981744461    -1.3896744115     0.2043794600
Bq         1.7697801245    -1.4608127066     0.6823483305
Bq         1.9238533104    -1.3754467524     0.1087856859
Bq         1.7441012601    -1.4750403656     0.7779421045
Bq         1.9495321747    -1.3612190934     0.0131919118
Bq         1.7184223958    -1.4892680247     0.8735358786
Bq         1.9752110390    -1.3469914344    -0.0824018623
Bq         1.8468167174    -1.4181297295     0.3955670082
Bq         1.8174468026    -1.3333746945     0.5049013218
Bq         1.8688045312    -1.3049193765     0.3137137736
Bq         1.7917679382    -1.3476023536     0.6004950959
Bq         1.8944833955    -1.2906917174     0.2181199995
Bq         1.7660890739    -1.3618300126     0.6960888700
Bq         1.9201622599    -1.2764640584     0.1225262254
Bq         1.7404102096    -1.3760576716     0.7916826441
Bq         1.9458411242    -1.2622363994     0.0269324513
Bq         1.7147313453    -1.3902853306     0.8872764182
Bq         1.9715199885    -1.2480087404    -0.0686613227
Bq         1.8431256669    -1.3191470355     0.4093075477
Bq         1.8137557520    -1.2343920005     0.5186418614
Bq         1.8651134807    -1.2059366824     0.3274543132
Bq         1.7880768877    -1.2486196595     0.6142356355
Bq         1.8907923450    -1.1917090234     0.2318605391
Bq         1.7623980234    -1.2628473185     0.7098294096
Bq         1.9164712093    -1.1774813644     0.1362667650
Bq         1.7367191591    -1.2770749776     0.8054231837
Bq         1.9421500736    -1.1632537054     0.0406729909
Bq         1.7110402947    -1.2913026366     0.9010169578
Bq         1.9678289380    -1.1490260463    -0.0549207832
Bq         1.8394346164    -1.2201643415     0.4230480873
Bq         1.8100647015    -1.1354093065     0.5323824009
Bq         1.8614224301    -1.1069539884     0.3411948528
Bq         1.7843858372    -1.1496369655     0.6279761750
Bq         1.8871012945    -1.0927263294     0.2456010787
Bq         1.7587069728    -1.1638646245     0.7235699491
Bq         1.9127801588    -1.0784986703     0.1500073046
Bq         1.7330281085    -1.1780922835     0.8191637232
Bq         1.9384590231    -1.0642710113     0.0544135305
Bq         1.7073492442    -1.1923199426     0.9147574973
Bq         1.9641378874    -1.0500433523    -0.0411802436
Bq         1.8357435658    -1.1211816474     0.4367886268
Bq         1.8063736510    -1.0364266124     0.5461229405
Bq         1.8577313796    -1.0079712944     0.3549353923
Bq         1.7806947866    -1.0506542714     0.6417167146
Bq         1.8834102439    -0.9937436353     0.2593416182
Bq         1.7550159223    -1.0648819305     0.7373104887
Bq         1.9090891082    -0.9795159763     0.1637478441
Bq         1.7293370580    -1.0791095895     0.8329042628
Bq         1.9347679726    -0.9652883173     0.0681540700
Bq         1.7036581937    -1.0933372485     0.9284980369
Bq         1.9604468369    -0.9510606583    -0.0274397041
Bq         1.8320525153    -1.0221989534     0.4505291664
Bq         1.8026826004    -0.9374439184     0.5598634801
Bq         1.8540403291    -0.9089886003     0.3686759319
Bq         1.7770037361    -0.9516715774     0.6554572542
Bq         1.8797191934    -0.8947609413     0.2730821578
Bq         1.7513248718    -0.9658992364     0.7510510282
Bq         1.9053980577    -0.8805332823     0.1774883837
Bq         1.7256460075    -0.9801268955     0.8466448023
Bq         1.9310769220    -0.8663056232     0.0818946096
Bq         1.6999671431    -0.9943545545     0.9422385764

1
2
3
4
5
6
7
8
9
10
11
12
13
14
15
16
17
18
19
20
21
22
23
24
25
26
27
28
29
30
31
32
33
34
35
36
37
38
39
40
41
42
43
44
45
46
47
48
49
50
51
52
53
54
55
56
57
58
59
60
61
62
63
64
65
66
67
68
69
70
71
72
73
74
75
76
77
78
79
80
81
82
83
84
85
86
87
88
89
90
91
92
93
94
95
96
97
98
99
100
101
102
103
104
105
106
107
108
109
110
111
112
113
114
115
116
117
118
119
120
121
122
123
124
125
126
127
128
129
130
131
132
133
134
135
136
137
138
139
140
141
142
143
144
145
146
147
148
149
150
151
152
153
154
155
156
157
158
159
160
161
162
163
164
165
166
167
168
169
170
171
172
173
174
175
176
177
178
179
180
181
182
183
184
185
186
187
188
189
190
191
192
193
194
195
196
197
198
199
200
201
202
203
204
205
206
207
208
209
210
211
212
213
214
215
216
217
218
219
220
221
222
223
224
225
226
227
228
229
230
231
232
233
234
235
236

