%nproc=8
%mem=1000MB
# rb3lyp/6-311+g** NMR geom=connectivity

Title

0 1
C    -4.0500558   -0.5771862    0.8136712
H    -5.0263804   -1.0082727    1.0024760
C    -3.9381552    0.6617804    0.2400876
H    -4.8252424    1.2338890   -0.0111295
C    -2.6768410    1.2433246    0.0057578
C    -1.4974121    0.5051527    0.2848253
C    -1.6508332   -0.7338728    0.9404026
H    -0.7713646   -1.2730967    1.2633753
C    -2.8898548   -1.2624035    1.1994307
H    -2.9683706   -2.2124563    1.7152676
C    -2.5773185    2.5963696   -0.4192930
H    -3.4870728    3.1412239   -0.6474055
C    -1.3741895    3.2147896   -0.4364030
H    -1.2997315    4.2742019   -0.6578144
C    -0.1719488    2.4994090   -0.1734588
C    -0.2043917    1.1018437    0.0192689
C     1.0513491    3.2042560   -0.0676222
H     1.0427344    4.2819499   -0.1896997
C     2.1942091    2.5487446    0.2579577
H     3.1168527    3.0912848    0.4334727
C     2.2216473    1.1336562    0.2934990
C     1.0486931    0.3945528    0.0302412
C     3.4483363    0.4614633    0.5573939
H     4.3095794    1.0606054    0.8334846
C     3.5427346   -0.8855926    0.4749463
H     4.4731467   -1.3939704    0.7038822
C     2.4490052   -1.6474447   -0.0196319
C     1.2150704   -1.0057258   -0.3013573
C     0.2531113   -1.7434440   -1.0216591
H    -0.6541356   -1.2535051   -1.3462847
C     0.4494193   -3.0628597   -1.3413779
H    -0.3083162   -3.5944309   -1.9054060
C     1.6251726   -3.7207967   -0.9552541
H     1.7670048   -4.7687404   -1.1927019
C     2.6109872   -3.0144177   -0.3183050
H     3.5525612   -3.4902813   -0.0646367
Bq        -0.6351586547     0.1152312251     0.3533628406
Bq        -0.6543685614     0.2379778120     0.8376811811
Bq        -0.6572375885     0.3594669613     0.9100148197
Bq        -0.6495536258     0.3103683265     0.7162874835
Bq        -0.6610795698     0.3840162787     1.0068784878
Bq        -0.6457116445     0.2858190092     0.6194238154
Bq        -0.6649215511     0.4085655960     1.1037421559
Bq        -0.6418696631     0.2612696918     0.5225601474
Bq        -0.6687635324     0.4331149134     1.2006058240
Bq        -0.6380276818     0.2367203744     0.4256964793
Bq        -0.6726055138     0.4576642308     1.2974694921
Bq        -0.6341857005     0.2121710570     0.3288328112
Bq        -0.6533956071     0.3349176439     0.8131511516
Bq        -0.6562646342     0.4564067932     0.8854847903
Bq        -0.6485806716     0.4073081585     0.6917574541
Bq        -0.6601066156     0.4809561106     0.9823484584
Bq        -0.6447386902     0.3827588411     0.5948937860
Bq        -0.6639485969     0.5055054280     1.0792121265
Bq        -0.6408967089     0.3582095237     0.4980301179
Bq        -0.6677905782     0.5300547454     1.1760757946
Bq        -0.6370547276     0.3336602064     0.4011664498
Bq        -0.6716325596     0.5546040627     1.2729394626
Bq        -0.6332127463     0.3091108890     0.3043027817
Bq        -0.6524226529     0.4318574759     0.7886211222
Bq        -0.6552916800     0.5533466252     0.8609547609
Bq        -0.6476077174     0.5042479904     0.6672274247
Bq        -0.6591336613     0.5778959425     0.9578184289
Bq        -0.6437657360     0.4796986730     0.5703637566
Bq        -0.6629756427     0.6024452599     1.0546820970
Bq        -0.6399237547     0.4551493557     0.4735000885
Bq        -0.6668176240     0.6269945773     1.1515457651
Bq        -0.6360817734     0.4306000383     0.3766364204
Bq        -0.6706596053     0.6515438947     1.2484094332
Bq        -0.6322397920     0.4060507209     0.2797727523
Bq        -0.6514496987     0.5287973078     0.7640910928
Bq        -0.6543187258     0.6502864571     0.8364247314
Bq        -0.6466347631     0.6011878224     0.6426973953
Bq        -0.6581607071     0.6748357745     0.9332883995
Bq        -0.6427927818     0.5766385050     0.5458337272
Bq        -0.6620026884     0.6993850919     1.0301520676
Bq        -0.6389508005     0.5520891876     0.4489700591
Bq        -0.6658446698     0.7239344092     1.1270157357
Bq        -0.6351088191     0.5275398702     0.3521063910
Bq        -0.6696866511     0.7484837266     1.2238794038
Bq        -0.6312668378     0.5029905529     0.2552427229
Bq        -0.6504767445     0.6257371397     0.7395610633
Bq        -0.6533457716     0.7472262890     0.8118947020
Bq        -0.6456618089     0.6981276543     0.6181673658
Bq        -0.6571877529     0.7717756064     0.9087583701
Bq        -0.6418198276     0.6735783369     0.5213036977
Bq        -0.6610297342     0.7963249238     1.0056220382
Bq        -0.6379778462     0.6490290195     0.4244400296
Bq        -0.6648717155     0.8208742412     1.1024857063
Bq        -0.6341358649     0.6244797022     0.3275763616
Bq        -0.6687136969     0.8454235585     1.1993493744
Bq        -0.6302938836     0.5999303848     0.2307126935
Bq        -0.6495037902     0.7226769717     0.7150310339
Bq        -0.6523728173     0.8441661210     0.7873646726
Bq        -0.6446888547     0.7950674862     0.5936373364
Bq        -0.6562147987     0.8687154384     0.8842283407
Bq        -0.6408468734     0.7705181689     0.4967736683
Bq        -0.6600567800     0.8932647557     0.9810920088
Bq        -0.6370048920     0.7459688515     0.3999100002
Bq        -0.6638987613     0.9178140731     1.0779556768
Bq        -0.6331629107     0.7214195341     0.3030463321
Bq        -0.6677407427     0.9423633905     1.1748193449
Bq        -0.6293209294     0.6968702167     0.2061826640
Bq        -0.6485308360     0.8196168036     0.6905010045
Bq        -0.6513998631     0.9411059529     0.7628346432
Bq        -0.6437159005     0.8920073182     0.5691073070
Bq        -0.6552418444     0.9656552703     0.8596983112
Bq        -0.6398739191     0.8674580008     0.4722436389
Bq        -0.6590838258     0.9902045877     0.9565619793
Bq        -0.6360319378     0.8429086834     0.3753799708
Bq        -0.6629258071     1.0147539051     1.0534256474
Bq        -0.6321899565     0.8183593660     0.2785163027
Bq        -0.6667677884     1.0393032224     1.1502893155
Bq        -0.6283479751     0.7938100487     0.1816526346
Bq        -0.6475578818     0.9165566355     0.6659709751
Bq        -0.6504269089     1.0380457849     0.7383046137
Bq        -0.6427429462     0.9889471501     0.5445772775
Bq        -0.6542688902     1.0625951022     0.8351682818
Bq        -0.6389009649     0.9643978327     0.4477136095
Bq        -0.6581108715     1.0871444196     0.9320319499
Bq        -0.6350589836     0.9398485154     0.3508499414
Bq        -0.6619528529     1.1116937370     1.0288956180
Bq        -0.6312170022     0.9152991980     0.2539862733
Bq        -0.6657948342     1.1362430544     1.1257592861
Bq        -0.6273750209     0.8907498806     0.1571226052
Bq        -0.6465849276     1.0134964675     0.6414409456
Bq        -0.6494539547     1.1349856168     0.7137745843
Bq        -0.6417699920     1.0858869821     0.5200472481
Bq        -0.6532959360     1.1595349342     0.8106382524
Bq        -0.6379280107     1.0613376647     0.4231835800
Bq        -0.6571379173     1.1840842516     0.9075019205
Bq        -0.6340860293     1.0367883473     0.3263199119
Bq        -0.6609798987     1.2086335689     1.0043655886
Bq        -0.6302440480     1.0122390299     0.2294562438
Bq        -0.6648218800     1.2331828863     1.1012292567
Bq        -0.6264020667     0.9876897125     0.1325925758
Bq        -0.6456119733     1.1104362994     0.6169109162
Bq        -0.6484810004     1.2319254487     0.6892445549
Bq        -0.6407970378     1.1828268140     0.4955172187
Bq        -0.6523229818     1.2564747661     0.7861082230
Bq        -0.6369550565     1.1582774966     0.3986535506
Bq        -0.6561649631     1.2810240835     0.8829718910
Bq        -0.6331130751     1.1337281792     0.3017898825
Bq        -0.6600069444     1.3055734009     0.9798355591
Bq        -0.6292710938     1.1091788619     0.2049262144
Bq        -0.6638489258     1.3301227182     1.0766992272
Bq        -0.6254291125     1.0846295445     0.1080625463
Bq        -0.6446390191     1.2073761314     0.5923808868
Bq        -0.6475080462     1.3288652807     0.6647145254
Bq        -0.6398240836     1.2797666459     0.4709871893
Bq        -0.6513500275     1.3534145981     0.7615781935
Bq        -0.6359821022     1.2552173286     0.3741235212
Bq        -0.6551920089     1.3779639154     0.8584418616
Bq        -0.6321401209     1.2306680112     0.2772598531
Bq        -0.6590339902     1.4025132328     0.9553055297
Bq        -0.6282981396     1.2061186938     0.1803961850
Bq        -0.6628759715     1.4270625502     1.0521691978
Bq        -0.6244561582     1.1815693764     0.0835325169
Bq        -0.6436660649     1.3043159633     0.5678508574
Bq        -0.6465350920     1.4258051126     0.6401844960
Bq        -0.6388511293     1.3767064779     0.4464571598
Bq        -0.6503770733     1.4503544300     0.7370481641
Bq        -0.6350091480     1.3521571605     0.3495934917
Bq        -0.6542190546     1.4749037474     0.8339118322
Bq        -0.6311671667     1.3276078431     0.2527298237
Bq        -0.6580610360     1.4994530647     0.9307755003
Bq        -0.6273251853     1.3030585257     0.1558661556
Bq        -0.6619030173     1.5240023821     1.0276391684
Bq        -0.6234832040     1.2785092084     0.0590024875
Bq        -0.6426931107     1.4012557952     0.5433208279
Bq        -0.6455621378     1.5227449446     0.6156544666
Bq        -0.6378781751     1.4736463098     0.4219271304
Bq        -0.6494041191     1.5472942619     0.7125181347
Bq        -0.6340361938     1.4490969924     0.3250634623
Bq        -0.6532461004     1.5718435793     0.8093818028
Bq        -0.6301942125     1.4245476751     0.2281997942
Bq        -0.6570880818     1.5963928967     0.9062454709
Bq        -0.6263522311     1.3999983577     0.1313361261
Bq        -0.6609300631     1.6209422141     1.0031091389
Bq        -0.6225102498     1.3754490403     0.0344724580
Bq        -0.6417201564     1.4981956272     0.5187907985
Bq        -0.6445891835     1.6196847765     0.5911244372
Bq        -0.6369052209     1.5705861417     0.3973971010
Bq        -0.6484311649     1.6442340939     0.6879881053
Bq        -0.6330632396     1.5460368244     0.3005334329
Bq        -0.6522731462     1.6687834113     0.7848517733
Bq        -0.6292212582     1.5214875070     0.2036697648
Bq        -0.6561151275     1.6933327286     0.8817154414
Bq        -0.6253792769     1.4969381896     0.1068060967
Bq        -0.6599571089     1.7178820460     0.9785791095
Bq        -0.6215372956     1.4723888722     0.0099424286
Bq        -0.6407472022     1.5951354591     0.4942607691
Bq        -0.6436162293     1.7166246084     0.5665944077
Bq        -0.6359322667     1.6675259737     0.3728670716
Bq        -0.6474582106     1.7411739258     0.6634580758
Bq        -0.6320902853     1.6429766563     0.2760034035
Bq        -0.6513001920     1.7657232432     0.7603217439
Bq        -0.6282483040     1.6184273389     0.1791397354
Bq        -0.6551421733     1.7902725606     0.8571854120
Bq        -0.6244063227     1.5938780216     0.0822760673
Bq        -0.6589841546     1.8148218779     0.9540490801
Bq        -0.6205643413     1.5693287042    -0.0145876008
Bq        -0.6397742480     1.6920752911     0.4697307396
Bq        -0.6426432751     1.8135644404     0.5420643783
Bq        -0.6349593124     1.7644658056     0.3483370421
Bq        -0.6464852564     1.8381137578     0.6389280464
Bq        -0.6311173311     1.7399164882     0.2514733740
Bq        -0.6503272378     1.8626630751     0.7357917145
Bq        -0.6272753498     1.7153671709     0.1546097059
Bq        -0.6541692191     1.8872123925     0.8326553826
Bq        -0.6234333684     1.6908178535     0.0577460379
Bq        -0.6580112004     1.9117617099     0.9295190507
Bq        -0.6195913871     1.6662685361    -0.0391176302
Bq        -0.6388012938     1.7890151230     0.4452007102
Bq        -0.6416703209     1.9105042723     0.5175343489
Bq        -0.6339863582     1.8614056376     0.3238070127
Bq        -0.6455123022     1.9350535897     0.6143980170
Bq        -0.6301443769     1.8368563202     0.2269433446
Bq        -0.6493542835     1.9596029071     0.7112616851
Bq        -0.6263023956     1.8123070028     0.1300796765
Bq        -0.6531962649     1.9841522244     0.8081253531
Bq        -0.6224604142     1.7877576854     0.0332160084
Bq        -0.6570382462     2.0087015418     0.9049890212
Bq        -0.6186184329     1.7632083681    -0.0636476597
Bq        -0.6378283395     1.8859549549     0.4206706808
Bq        -0.6406973666     2.0074441043     0.4930043195
Bq        -0.6330134040     1.9583454695     0.2992769833
Bq        -0.6445393480     2.0319934216     0.5898679875
Bq        -0.6291714227     1.9337961521     0.2024133152
Bq        -0.6483813293     2.0565427390     0.6867316556
Bq        -0.6253294413     1.9092468348     0.1055496471
Bq        -0.6522233106     2.0810920564     0.7835953237
Bq        -0.6214874600     1.8846975174     0.0086859790
Bq        -0.6560652920     2.1056413738     0.8804589918
Bq        -0.6176454787     1.8601482000    -0.0881776891
Bq        -0.6368553853     1.9828947869     0.3961406514

1
2
3
4
5
6
7
8
9
10
11
12
13
14
15
16
17
18
19
20
21
22
23
24
25
26
27
28
29
30
31
32
33
34
35
36
37
38
39
40
41
42
43
44
45
46
47
48
49
50
51
52
53
54
55
56
57
58
59
60
61
62
63
64
65
66
67
68
69
70
71
72
73
74
75
76
77
78
79
80
81
82
83
84
85
86
87
88
89
90
91
92
93
94
95
96
97
98
99
100
101
102
103
104
105
106
107
108
109
110
111
112
113
114
115
116
117
118
119
120
121
122
123
124
125
126
127
128
129
130
131
132
133
134
135
136
137
138
139
140
141
142
143
144
145
146
147
148
149
150
151
152
153
154
155
156
157
158
159
160
161
162
163
164
165
166
167
168
169
170
171
172
173
174
175
176
177
178
179
180
181
182
183
184
185
186
187
188
189
190
191
192
193
194
195
196
197
198
199
200
201
202
203
204
205
206
207
208
209
210
211
212
213
214
215
216
217
218
219
220
221
222
223
224
225
226
227
228
229
230
231
232
233
234
235
236

