%nproc=8
%mem=1000MB
# rb3lyp/6-311+g** NMR geom=connectivity

Title

0 1
C    -4.0500558   -0.5771862    0.8136712
H    -5.0263804   -1.0082727    1.0024760
C    -3.9381552    0.6617804    0.2400876
H    -4.8252424    1.2338890   -0.0111295
C    -2.6768410    1.2433246    0.0057578
C    -1.4974121    0.5051527    0.2848253
C    -1.6508332   -0.7338728    0.9404026
H    -0.7713646   -1.2730967    1.2633753
C    -2.8898548   -1.2624035    1.1994307
H    -2.9683706   -2.2124563    1.7152676
C    -2.5773185    2.5963696   -0.4192930
H    -3.4870728    3.1412239   -0.6474055
C    -1.3741895    3.2147896   -0.4364030
H    -1.2997315    4.2742019   -0.6578144
C    -0.1719488    2.4994090   -0.1734588
C    -0.2043917    1.1018437    0.0192689
C     1.0513491    3.2042560   -0.0676222
H     1.0427344    4.2819499   -0.1896997
C     2.1942091    2.5487446    0.2579577
H     3.1168527    3.0912848    0.4334727
C     2.2216473    1.1336562    0.2934990
C     1.0486931    0.3945528    0.0302412
C     3.4483363    0.4614633    0.5573939
H     4.3095794    1.0606054    0.8334846
C     3.5427346   -0.8855926    0.4749463
H     4.4731467   -1.3939704    0.7038822
C     2.4490052   -1.6474447   -0.0196319
C     1.2150704   -1.0057258   -0.3013573
C     0.2531113   -1.7434440   -1.0216591
H    -0.6541356   -1.2535051   -1.3462847
C     0.4494193   -3.0628597   -1.3413779
H    -0.3083162   -3.5944309   -1.9054060
C     1.6251726   -3.7207967   -0.9552541
H     1.7670048   -4.7687404   -1.1927019
C     2.6109872   -3.0144177   -0.3183050
H     3.5525612   -3.4902813   -0.0646367
Bq         0.2755776684     0.5644487676     1.0244672210
Bq         0.4203371989     0.5153139168     0.0362210751
Bq         0.3479574336     0.5398813422     0.5303441481
Bq         0.3341936145     0.6446740426     0.6243071579
Bq         0.3631455206     0.6348470725     0.4266579287
Bq         0.3197176615     0.6495875277     0.7231317725
Bq         0.3776214737     0.6299335874     0.3278333141
Bq         0.3052417084     0.6545010128     0.8219563871
Bq         0.3920974267     0.6250201023     0.2290086995
Bq         0.2907657554     0.6594144979     0.9207810016
Bq         0.4065733798     0.6201066172     0.1301840850
Bq         0.2762898024     0.6643279830     1.0196056162
Bq         0.4210493328     0.6151931321     0.0313594704
Bq         0.3486695676     0.6397605576     0.5254825433
Bq         0.3349057485     0.7445532580     0.6194455531
Bq         0.3638576546     0.7347262878     0.4217963240
Bq         0.3204297954     0.7494667431     0.7182701677
Bq         0.3783336076     0.7298128028     0.3229717094
Bq         0.3059538424     0.7543802282     0.8170947823
Bq         0.3928095607     0.7248993177     0.2241470948
Bq         0.2914778893     0.7592937133     0.9159193969
Bq         0.4072855137     0.7199858326     0.1253224802
Bq         0.2770019363     0.7642071983     1.0147440115
Bq         0.4217614667     0.7150723475     0.0264978656
Bq         0.3493817015     0.7396397729     0.5206209385
Bq         0.3356178824     0.8444324734     0.6145839484
Bq         0.3645697885     0.8346055032     0.4169347192
Bq         0.3211419294     0.8493459585     0.7134085629
Bq         0.3790457416     0.8296920181     0.3181101046
Bq         0.3066659763     0.8542594436     0.8122331775
Bq         0.3935216946     0.8247785331     0.2192854900
Bq         0.2921900233     0.8591729286     0.9110577921
Bq         0.4079976476     0.8198650480     0.1204608754
Bq         0.2777140702     0.8640864137     1.0098824067
Bq         0.4224736007     0.8149515629     0.0216362608
Bq         0.3500938355     0.8395189883     0.5157593338
Bq         0.3363300164     0.9443116888     0.6097223436
Bq         0.3652819225     0.9344847186     0.4120731144
Bq         0.3218540633     0.9492251739     0.7085469582
Bq         0.3797578755     0.9295712335     0.3132484998
Bq         0.3073781103     0.9541386589     0.8073715728
Bq         0.3942338285     0.9246577484     0.2144238853
Bq         0.2929021572     0.9590521440     0.9061961873
Bq         0.4087097816     0.9197442634     0.1155992707
Bq         0.2784262042     0.9639656291     1.0050208019
Bq         0.4231857346     0.9148307783     0.0167746561
Bq         0.3508059694     0.9393982037     0.5108977290
Bq         0.3370421503     1.0441909041     0.6048607388
Bq         0.3659940564     1.0343639340     0.4072115097
Bq         0.3225661973     1.0491043892     0.7036853534
Bq         0.3804700094     1.0294504489     0.3083868951
Bq         0.3080902442     1.0540178743     0.8025099680
Bq         0.3949459625     1.0245369638     0.2095622805
Bq         0.2936142912     1.0589313594     0.9013345826
Bq         0.4094219155     1.0196234787     0.1107376659
Bq         0.2791383381     1.0638448445     1.0001591972
Bq         0.4238978686     1.0147099936     0.0119130513
Bq         0.3515181033     1.0392774191     0.5060361242
Bq         0.3377542842     1.1440701195     0.5999991341
Bq         0.3667061903     1.1342431494     0.4023499049
Bq         0.3232783312     1.1489836046     0.6988237486
Bq         0.3811821434     1.1293296643     0.3035252903
Bq         0.3088023782     1.1538970897     0.7976483632
Bq         0.3956580964     1.1244161792     0.2047006757
Bq         0.2943264251     1.1588105748     0.8964729778
Bq         0.4101340495     1.1195026941     0.1058760611
Bq         0.2798504721     1.1637240599     0.9952975924
Bq         0.4246100025     1.1145892090     0.0070514465
Bq         0.3522302373     1.1391566344     0.5011745195
Bq         0.3384664182     1.2439493349     0.5951375293
Bq         0.3674183243     1.2341223647     0.3974883001
Bq         0.3239904651     1.2488628200     0.6939621439
Bq         0.3818942773     1.2292088797     0.2986636855
Bq         0.3095145121     1.2537763051     0.7927867585
Bq         0.3963702304     1.2242953946     0.1998390710
Bq         0.2950385591     1.2586897901     0.8916113730
Bq         0.4108461834     1.2193819095     0.1010144564
Bq         0.2805626060     1.2636032752     0.9904359876
Bq         0.4253221365     1.2144684244     0.0021898418
Bq         0.3529423712     1.2390358498     0.4963129147
Bq         0.3391785521     1.3438285503     0.5902759245
Bq         0.3681304582     1.3340015801     0.3926266954
Bq         0.3247025991     1.3487420354     0.6891005391
Bq         0.3826064113     1.3290880950     0.2938020808
Bq         0.3102266460     1.3536555204     0.7879251537
Bq         0.3970823643     1.3241746099     0.1949774662
Bq         0.2957506930     1.3585690055     0.8867497683
Bq         0.4115583174     1.3192611249     0.0961528516
Bq         0.2812747400     1.3634824906     0.9855743829
Bq         0.4260342704     1.3143476398    -0.0026717630
Bq         0.3536545052     1.3389150652     0.4914513099
Bq         0.3398906861     1.4437077657     0.5854143198
Bq         0.3688425922     1.4338807955     0.3877650906
Bq         0.3254147330     1.4486212507     0.6842389343
Bq         0.3833185452     1.4289673104     0.2889404760
Bq         0.3109387800     1.4535347358     0.7830635489
Bq         0.3977944982     1.4240538253     0.1901158614
Bq         0.2964628269     1.4584482209     0.8818881635
Bq         0.4122704513     1.4191403402     0.0912912468
Bq         0.2819868739     1.4633617060     0.9807127781
Bq         0.4267464043     1.4142268552    -0.0075333678
Bq         0.3543666391     1.4387942806     0.4865897052
Bq         0.3406028200     1.5435869810     0.5805527150
Bq         0.3695547261     1.5337600109     0.3829034858
Bq         0.3261268670     1.5485004661     0.6793773296
Bq         0.3840306791     1.5288465258     0.2840788712
Bq         0.3116509139     1.5534139512     0.7782019442
Bq         0.3985066322     1.5239330407     0.1852542567
Bq         0.2971749609     1.5583274363     0.8770265587
Bq         0.4129825852     1.5190195556     0.0864296421
Bq         0.2826990078     1.5632409214     0.9758511733
Bq         0.4274585383     1.5141060705    -0.0123949725
Bq         0.3550787731     1.5386734959     0.4817281004
Bq         0.3413149540     1.6434661964     0.5756911102
Bq         0.3702668600     1.6336392262     0.3780418811
Bq         0.3268390009     1.6483796815     0.6745157248
Bq         0.3847428131     1.6287257412     0.2792172665
Bq         0.3123630479     1.6532931666     0.7733403394
Bq         0.3992187661     1.6238122561     0.1803926519
Bq         0.2978870948     1.6582066517     0.8721649540
Bq         0.4136947192     1.6188987710     0.0815680373
Bq         0.2834111418     1.6631201367     0.9709895686
Bq         0.4281706722     1.6139852859    -0.0172565773
Bq         0.3557909070     1.6385527113     0.4768664956
Bq         0.3420270879     1.7433454118     0.5708295055
Bq         0.3709789940     1.7335184416     0.3731802763
Bq         0.3275511349     1.7482588969     0.6696541200
Bq         0.3854549470     1.7286049565     0.2743556617
Bq         0.3130751818     1.7531723819     0.7684787346
Bq         0.3999309001     1.7236914715     0.1755310471
Bq         0.2985992288     1.7580858670     0.8673033492
Bq         0.4144068531     1.7187779864     0.0767064325
Bq         0.2841232757     1.7629993521     0.9661279638
Bq         0.4288828062     1.7138645013    -0.0221181821
Bq         0.3565030409     1.7384319267     0.4720048909
Bq         0.3427392218     1.8432246272     0.5659679007
Bq         0.3716911279     1.8333976570     0.3683186715
Bq         0.3282632688     1.8481381122     0.6647925153
Bq         0.3861670810     1.8284841719     0.2694940569
Bq         0.3137873157     1.8530515973     0.7636171299
Bq         0.4006430340     1.8235706868     0.1706694424
Bq         0.2993113627     1.8579650824     0.8624417444
Bq         0.4151189871     1.8186572017     0.0718448278
Bq         0.2848354097     1.8628785675     0.9612663590
Bq         0.4295949401     1.8137437167    -0.0269797868
Bq         0.3572151749     1.8383111421     0.4671432861
Bq         0.3434513558     1.9431038425     0.5611062959
Bq         0.3724032619     1.9332768724     0.3634570668
Bq         0.3289754027     1.9480173276     0.6599309105
Bq         0.3868792149     1.9283633873     0.2646324522
Bq         0.3144994497     1.9529308127     0.7587555251
Bq         0.4013551680     1.9234499022     0.1658078376
Bq         0.3000234966     1.9578442978     0.8575801397
Bq         0.4158311210     1.9185364171     0.0669832230
Bq         0.2855475436     1.9627577829     0.9564047543
Bq         0.4303070740     1.9136229320    -0.0318413916
Bq         0.3579273088     1.9381903575     0.4622816813
Bq         0.3441634897     2.0429830579     0.5562446912
Bq         0.3731153958     2.0331560878     0.3585954620
Bq         0.3296875367     2.0478965430     0.6550693057
Bq         0.3875913489     2.0282426027     0.2597708474
Bq         0.3152115836     2.0528100281     0.7538939203
Bq         0.4020673019     2.0233291176     0.1609462328
Bq         0.3007356306     2.0577235132     0.8527185349
Bq         0.4165432549     2.0184156325     0.0621216182
Bq         0.2862596775     2.0626369982     0.9515431495
Bq         0.4310192080     2.0135021474    -0.0367029964
Bq         0.3586394428     2.0380695728     0.4574200766
Bq         0.3448756237     2.1428622733     0.5513830864
Bq         0.3738275298     2.1330353031     0.3537338572
Bq         0.3303996706     2.1477757584     0.6502077010
Bq         0.3883034828     2.1281218180     0.2549092426
Bq         0.3159237176     2.1526892435     0.7490323156
Bq         0.4027794358     2.1232083330     0.1560846281
Bq         0.3014477645     2.1576027285     0.8478569301
Bq         0.4172553889     2.1182948479     0.0572600135
Bq         0.2869718115     2.1625162136     0.9466815447
Bq         0.4317313419     2.1133813628    -0.0415646011
Bq         0.3593515767     2.1379487882     0.4525584718
Bq         0.3455877576     2.2427414887     0.5465214816
Bq         0.3745396637     2.2329145185     0.3488722525
Bq         0.3311118046     2.2476549738     0.6453460962
Bq         0.3890156167     2.2280010334     0.2500476379
Bq         0.3166358515     2.2525684588     0.7441707108
Bq         0.4034915698     2.2230875483     0.1512230233
Bq         0.3021598985     2.2574819439     0.8429953254
Bq         0.4179675228     2.2181740633     0.0523984087
Bq         0.2876839454     2.2623954290     0.9418199400
Bq         0.4324434759     2.2132605782    -0.0464262059
Bq         0.3600637106     2.2378280036     0.4476968670
Bq         0.3462998915     2.3426207040     0.5416598769
Bq         0.3752517976     2.3327937339     0.3440106477
Bq         0.3318239385     2.3475341891     0.6404844914
Bq         0.3897277507     2.3278802488     0.2451860331
Bq         0.3173479855     2.3524476742     0.7393091060
Bq         0.4042037037     2.3229667637     0.1463614185
Bq         0.3028720324     2.3573611593     0.8381337206
Bq         0.4186796568     2.3180532786     0.0475368039
Bq         0.2883960794     2.3622746444     0.9369583352
Bq         0.4331556098     2.3131397936    -0.0512878106

1
2
3
4
5
6
7
8
9
10
11
12
13
14
15
16
17
18
19
20
21
22
23
24
25
26
27
28
29
30
31
32
33
34
35
36
37
38
39
40
41
42
43
44
45
46
47
48
49
50
51
52
53
54
55
56
57
58
59
60
61
62
63
64
65
66
67
68
69
70
71
72
73
74
75
76
77
78
79
80
81
82
83
84
85
86
87
88
89
90
91
92
93
94
95
96
97
98
99
100
101
102
103
104
105
106
107
108
109
110
111
112
113
114
115
116
117
118
119
120
121
122
123
124
125
126
127
128
129
130
131
132
133
134
135
136
137
138
139
140
141
142
143
144
145
146
147
148
149
150
151
152
153
154
155
156
157
158
159
160
161
162
163
164
165
166
167
168
169
170
171
172
173
174
175
176
177
178
179
180
181
182
183
184
185
186
187
188
189
190
191
192
193
194
195
196
197
198
199
200
201
202
203
204
205
206
207
208
209
210
211
212
213
214
215
216
217
218
219
220
221
222
223
224
225
226
227
228
229
230
231
232
233
234
235
236

