%nproc=8
%mem=1000MB
# rb3lyp/6-311+g** NMR geom=connectivity

Title

0 1
C    -4.0500558   -0.5771862    0.8136712
H    -5.0263804   -1.0082727    1.0024760
C    -3.9381552    0.6617804    0.2400876
H    -4.8252424    1.2338890   -0.0111295
C    -2.6768410    1.2433246    0.0057578
C    -1.4974121    0.5051527    0.2848253
C    -1.6508332   -0.7338728    0.9404026
H    -0.7713646   -1.2730967    1.2633753
C    -2.8898548   -1.2624035    1.1994307
H    -2.9683706   -2.2124563    1.7152676
C    -2.5773185    2.5963696   -0.4192930
H    -3.4870728    3.1412239   -0.6474055
C    -1.3741895    3.2147896   -0.4364030
H    -1.2997315    4.2742019   -0.6578144
C    -0.1719488    2.4994090   -0.1734588
C    -0.2043917    1.1018437    0.0192689
C     1.0513491    3.2042560   -0.0676222
H     1.0427344    4.2819499   -0.1896997
C     2.1942091    2.5487446    0.2579577
H     3.1168527    3.0912848    0.4334727
C     2.2216473    1.1336562    0.2934990
C     1.0486931    0.3945528    0.0302412
C     3.4483363    0.4614633    0.5573939
H     4.3095794    1.0606054    0.8334846
C     3.5427346   -0.8855926    0.4749463
H     4.4731467   -1.3939704    0.7038822
C     2.4490052   -1.6474447   -0.0196319
C     1.2150704   -1.0057258   -0.3013573
C     0.2531113   -1.7434440   -1.0216591
H    -0.6541356   -1.2535051   -1.3462847
C     0.4494193   -3.0628597   -1.3413779
H    -0.3083162   -3.5944309   -1.9054060
C     1.6251726   -3.7207967   -0.9552541
H     1.7670048   -4.7687404   -1.1927019
C     2.6109872   -3.0144177   -0.3183050
H     3.5525612   -3.4902813   -0.0646367
Bq         3.2970658447     3.9505151202     1.0963271972
Bq         3.3839215629     3.9210342098     0.5033795097
Bq         3.2825898916     3.9554286053     1.1951518118
Bq         3.3983975160     3.9161207247     0.4045548951
Bq         3.2681139386     3.9603420904     1.2939764264
Bq         3.4128734690     3.9112072396     0.3057302805
Bq         3.3404937038     3.9357746650     0.7998533534
Bq         3.3267298847     4.0405673655     0.8938163632
Bq         3.3556817908     4.0307403953     0.6961671341
Bq         3.3122539317     4.0454808505     0.9926409778
Bq         3.3701577438     4.0258269102     0.5973425195
Bq         3.2977779786     4.0503943356     1.0914655924
Bq         3.3846336969     4.0209134251     0.4985179049
Bq         3.2833020256     4.0553078207     1.1902902070
Bq         3.3991096499     4.0159999400     0.3996932903
Bq         3.2688260725     4.0602213058     1.2891148216
Bq         3.4135856030     4.0110864550     0.3008686757
Bq         3.3412058377     4.0356538804     0.7949917487
Bq         3.3274420186     4.1404465808     0.8889547585
Bq         3.3563939247     4.1306196107     0.6913055293
Bq         3.3129660656     4.1453600659     0.9877793731
Bq         3.3708698778     4.1257061256     0.5924809147
Bq         3.2984901126     4.1502735510     1.0866039877
Bq         3.3853458308     4.1207926405     0.4936563001
Bq         3.2840141595     4.1551870361     1.1854286022
Bq         3.3998217839     4.1158791554     0.3948316856
Bq         3.2695382065     4.1601005212     1.2842532168
Bq         3.4142977369     4.1109656703     0.2960070710
Bq         3.3419179717     4.1355330958     0.7901301439
Bq         3.3281541526     4.2403257962     0.8840931537
Bq         3.3571060587     4.2304988260     0.6864439245
Bq         3.3136781995     4.2452392813     0.9829177683
Bq         3.3715820117     4.2255853410     0.5876193100
Bq         3.2992022465     4.2501527664     1.0817423829
Bq         3.3860579648     4.2206718559     0.4887946954
Bq         3.2847262935     4.2550662515     1.1805669975
Bq         3.4005339178     4.2157583708     0.3899700808
Bq         3.2702503404     4.2599797365     1.2793916121
Bq         3.4150098709     4.2108448857     0.2911454662
Bq         3.3426301056     4.2354123111     0.7852685391
Bq         3.3288662865     4.3402050116     0.8792315489
Bq         3.3578181926     4.3303780414     0.6815823198
Bq         3.3143903335     4.3451184967     0.9780561635
Bq         3.3722941457     4.3254645563     0.5827577052
Bq         3.2999143804     4.3500319818     1.0768807781
Bq         3.3867700987     4.3205510713     0.4839330906
Bq         3.2854384274     4.3549454668     1.1757053927
Bq         3.4012460517     4.3156375862     0.3851084760
Bq         3.2709624743     4.3598589519     1.2745300073
Bq         3.4157220048     4.3107241011     0.2862838614
Bq         3.3433422396     4.3352915265     0.7804069344
Bq         3.3922037133    -0.6537557573     1.1368052462
Bq         3.4211556194    -0.6635827274     0.9391560170
Bq         3.3777277603    -0.6488422722     1.2356298608
Bq         3.4356315724    -0.6684962125     0.8403314024
Bq         3.3632518072    -0.6439287871     1.3344544754
Bq         3.4501075255    -0.6734096976     0.7415067878
Bq         3.3487758542    -0.6390153020     1.4332790899
Bq         3.4645834785    -0.6783231827     0.6426821733
Bq         3.3342999011    -0.6341018169     1.5321037045
Bq         3.4790594316    -0.6832366678     0.5438575587
Bq         3.4066796664    -0.6586692423     1.0379806316
Bq         3.3929158473    -0.5538765419     1.1319436414
Bq         3.4218677533    -0.5637035121     0.9342944122
Bq         3.3784398942    -0.5489630568     1.2307682560
Bq         3.4363437064    -0.5686169971     0.8354697977
Bq         3.3639639412    -0.5440495717     1.3295928706
Bq         3.4508196594    -0.5735304822     0.7366451831
Bq         3.3494879881    -0.5391360866     1.4284174852
Bq         3.4652956125    -0.5784439673     0.6378205685
Bq         3.3350120351    -0.5342226016     1.5272420998
Bq         3.4797715655    -0.5833574524     0.5389959539
Bq         3.4073918003    -0.5587900270     1.0331190268
Bq         3.3936279812    -0.4539973265     1.1270820367
Bq         3.4225798873    -0.4638242967     0.9294328075
Bq         3.3791520282    -0.4490838414     1.2259066512
Bq         3.4370558403    -0.4687377818     0.8306081929
Bq         3.3646760751    -0.4441703563     1.3247312658
Bq         3.4515317934    -0.4736512668     0.7317835783
Bq         3.3502001221    -0.4392568713     1.4235558804
Bq         3.4660077464    -0.4785647519     0.6329589637
Bq         3.3357241690    -0.4343433862     1.5223804950
Bq         3.4804836995    -0.4834782370     0.5341343491
Bq         3.4081039342    -0.4589108116     1.0282574221
Bq         3.3943401151    -0.3541181111     1.1222204319
Bq         3.4232920212    -0.3639450813     0.9245712027
Bq         3.3798641621    -0.3492046261     1.2210450465
Bq         3.4377679743    -0.3688585664     0.8257465881
Bq         3.3653882091    -0.3442911410     1.3198696611
Bq         3.4522439273    -0.3737720515     0.7269219735
Bq         3.3509122560    -0.3393776559     1.4186942756
Bq         3.4667198804    -0.3786855365     0.6280973590
Bq         3.3364363030    -0.3344641708     1.5175188902
Bq         3.4811958334    -0.3835990216     0.5292727444
Bq         3.4088160682    -0.3590315962     1.0233958173
Bq         3.3950522491    -0.2542388958     1.1173588271
Bq         3.4240041552    -0.2640658659     0.9197095980
Bq         3.3805762960    -0.2493254107     1.2161834417
Bq         3.4384801082    -0.2689793510     0.8208849834
Bq         3.3661003430    -0.2444119256     1.3150080563
Bq         3.4529560613    -0.2738928361     0.7220603688
Bq         3.3516243899    -0.2394984405     1.4138326709
Bq         3.4674320143    -0.2788063212     0.6232357542
Bq         3.3371484369    -0.2345849554     1.5126572855
Bq         3.4819079673    -0.2837198063     0.5244111396
Bq         3.4095282021    -0.2591523808     1.0185342125
Bq         3.3957643830    -0.1543596804     1.1124972224
Bq         3.4247162891    -0.1641866505     0.9148479932
Bq         3.3812884300    -0.1494461953     1.2113218369
Bq         3.4391922422    -0.1691001356     0.8160233786
Bq         3.3668124769    -0.1445327102     1.3101464515
Bq         3.4536681952    -0.1740136207     0.7171987640
Bq         3.3523365239    -0.1396192251     1.4089710661
Bq         3.4681441482    -0.1789271058     0.6183741494
Bq         3.3378605708    -0.1347057400     1.5077956807
Bq         3.4826201013    -0.1838405909     0.5195495348
Bq         3.4102403361    -0.1592731655     1.0136726078
Bq         3.3964765170    -0.0544804650     1.1076356176
Bq         3.4254284231    -0.0643074352     0.9099863884
Bq         3.3820005639    -0.0495669799     1.2064602322
Bq         3.4399043761    -0.0692209203     0.8111617738
Bq         3.3675246109    -0.0446534948     1.3052848468
Bq         3.4543803291    -0.0741344053     0.7123371592
Bq         3.3530486578    -0.0397400098     1.4041094613
Bq         3.4688562822    -0.0790478904     0.6135125447
Bq         3.3385727048    -0.0348265247     1.5029340759
Bq         3.4833322352    -0.0839613755     0.5146879301
Bq         3.4109524700    -0.0593939501     1.0088110030
Bq         3.3971886509     0.0453987504     1.1027740128
Bq         3.4261405570     0.0355717802     0.9051247837
Bq         3.3827126979     0.0503122355     1.2015986274
Bq         3.4406165100     0.0306582951     0.8063001691
Bq         3.3682367448     0.0552257205     1.3004232420
Bq         3.4550924631     0.0257448100     0.7074755545
Bq         3.3537607918     0.0601392056     1.3992478566
Bq         3.4695684161     0.0208313250     0.6086509399
Bq         3.3392848387     0.0650526907     1.4980724712
Bq         3.4840443692     0.0159178399     0.5098263253
Bq         3.4116646040     0.0404852653     1.0039493982
Bq         3.3979007848     0.1452779658     1.0979124081
Bq         3.4268526909     0.1354509956     0.9002631789
Bq         3.3834248318     0.1501914508     1.1967370226
Bq         3.4413286440     0.1305375105     0.8014385643
Bq         3.3689488788     0.1551049359     1.2955616372
Bq         3.4558045970     0.1256240254     0.7026139497
Bq         3.3544729257     0.1600184210     1.3943862518
Bq         3.4702805501     0.1207105403     0.6037893351
Bq         3.3399969727     0.1649319061     1.4932108664
Bq         3.4847565031     0.1157970553     0.5049647205
Bq         3.4123767379     0.1403644807     0.9990877935
Bq         3.3986129188     0.2451571811     1.0930508033
Bq         3.4275648249     0.2353302110     0.8954015741
Bq         3.3841369657     0.2500706662     1.1918754179
Bq         3.4420407779     0.2304167259     0.7965769595
Bq         3.3696610127     0.2549841513     1.2907000325
Bq         3.4565167310     0.2255032408     0.6977523449
Bq         3.3551850597     0.2598976364     1.3895246470
Bq         3.4709926840     0.2205897557     0.5989277304
Bq         3.3407091066     0.2648111215     1.4883492616
Bq         3.4854686371     0.2156762706     0.5001031158
Bq         3.4130888718     0.2402436960     0.9942261887
Bq         3.3993250527     0.3450363965     1.0881891985
Bq         3.4282769588     0.3352094263     0.8905399694
Bq         3.3848490997     0.3499498816     1.1870138131
Bq         3.4427529119     0.3302959413     0.7917153548
Bq         3.3703731466     0.3548633667     1.2858384277
Bq         3.4572288649     0.3253824562     0.6928907402
Bq         3.3558971936     0.3597768518     1.3846630423
Bq         3.4717048180     0.3204689711     0.5940661256
Bq         3.3414212406     0.3646903368     1.4834876569
Bq         3.4861807710     0.3155554860     0.4952415110
Bq         3.4138010058     0.3401229114     0.9893645839
Bq         3.4000371867     0.4449156119     1.0833275938
Bq         3.4289890928     0.4350886417     0.8856783646
Bq         3.3855612336     0.4498290970     1.1821522083
Bq         3.4434650458     0.4301751566     0.7868537500
Bq         3.3710852806     0.4547425820     1.2809768229
Bq         3.4579409989     0.4252616716     0.6880291354
Bq         3.3566093275     0.4596560671     1.3798014375
Bq         3.4724169519     0.4203481865     0.5892045208
Bq         3.3421333745     0.4645695522     1.4786260521
Bq         3.4868929049     0.4154347014     0.4903799062
Bq         3.4145131397     0.4400021268     0.9845029792
Bq         3.4007493206     0.5447948273     1.0784659890
Bq         3.4297012267     0.5349678571     0.8808167598
Bq         3.3862733676     0.5497083123     1.1772906036
Bq         3.4441771797     0.5300543720     0.7819921452
Bq         3.3717974145     0.5546217974     1.2761152182
Bq         3.4586531328     0.5251408869     0.6831675306
Bq         3.3573214615     0.5595352825     1.3749398327
Bq         3.4731290858     0.5202274018     0.5843429161
Bq         3.3428455084     0.5644487676     1.4737644473
Bq         3.4876050389     0.5153139168     0.4855183015
Bq         3.4152252737     0.5398813422     0.9796413744
Bq         3.4014614546     0.6446740426     1.0736043842
Bq         3.4304133606     0.6348470725     0.8759551551
Bq         3.3869855015     0.6495875277     1.1724289988
Bq         3.4448893137     0.6299335874     0.7771305405
Bq         3.3725095485     0.6545010128     1.2712536134
Bq         3.4593652667     0.6250201023     0.6783059259

1
2
3
4
5
6
7
8
9
10
11
12
13
14
15
16
17
18
19
20
21
22
23
24
25
26
27
28
29
30
31
32
33
34
35
36
37
38
39
40
41
42
43
44
45
46
47
48
49
50
51
52
53
54
55
56
57
58
59
60
61
62
63
64
65
66
67
68
69
70
71
72
73
74
75
76
77
78
79
80
81
82
83
84
85
86
87
88
89
90
91
92
93
94
95
96
97
98
99
100
101
102
103
104
105
106
107
108
109
110
111
112
113
114
115
116
117
118
119
120
121
122
123
124
125
126
127
128
129
130
131
132
133
134
135
136
137
138
139
140
141
142
143
144
145
146
147
148
149
150
151
152
153
154
155
156
157
158
159
160
161
162
163
164
165
166
167
168
169
170
171
172
173
174
175
176
177
178
179
180
181
182
183
184
185
186
187
188
189
190
191
192
193
194
195
196
197
198
199
200
201
202
203
204
205
206
207
208
209
210
211
212
213
214
215
216
217
218
219
220
221
222
223
224
225
226
227
228
229
230
231
232
233
234
235
236

