%nproc=8
%mem=1000MB
# rb3lyp/6-311+g** NMR geom=connectivity

Title

0 1
C    -4.0500558   -0.5771862    0.8136712
H    -5.0263804   -1.0082727    1.0024760
C    -3.9381552    0.6617804    0.2400876
H    -4.8252424    1.2338890   -0.0111295
C    -2.6768410    1.2433246    0.0057578
C    -1.4974121    0.5051527    0.2848253
C    -1.6508332   -0.7338728    0.9404026
H    -0.7713646   -1.2730967    1.2633753
C    -2.8898548   -1.2624035    1.1994307
H    -2.9683706   -2.2124563    1.7152676
C    -2.5773185    2.5963696   -0.4192930
H    -3.4870728    3.1412239   -0.6474055
C    -1.3741895    3.2147896   -0.4364030
H    -1.2997315    4.2742019   -0.6578144
C    -0.1719488    2.4994090   -0.1734588
C    -0.2043917    1.1018437    0.0192689
C     1.0513491    3.2042560   -0.0676222
H     1.0427344    4.2819499   -0.1896997
C     2.1942091    2.5487446    0.2579577
H     3.1168527    3.0912848    0.4334727
C     2.2216473    1.1336562    0.2934990
C     1.0486931    0.3945528    0.0302412
C     3.4483363    0.4614633    0.5573939
H     4.3095794    1.0606054    0.8334846
C     3.5427346   -0.8855926    0.4749463
H     4.4731467   -1.3939704    0.7038822
C     2.4490052   -1.6474447   -0.0196319
C     1.2150704   -1.0057258   -0.3013573
C     0.2531113   -1.7434440   -1.0216591
H    -0.6541356   -1.2535051   -1.3462847
C     0.4494193   -3.0628597   -1.3413779
H    -0.3083162   -3.5944309   -1.9054060
C     1.6251726   -3.7207967   -0.9552541
H     1.7670048   -4.7687404   -1.1927019
C     2.6109872   -3.0144177   -0.3183050
H     3.5525612   -3.4902813   -0.0646367
Bq         1.3314834379     1.3391580444     0.7721247628
Bq         1.3828411666     1.3676133625     0.5809372146
Bq         1.3058045736     1.3249303854     0.8677185369
Bq         1.4085200309     1.3818410215     0.4853434405
Bq         1.2801257093     1.3107027264     0.9633123109
Bq         1.4341988952     1.3960686806     0.3897496664
Bq         1.2544468450     1.2964750674     1.0589060850
Bq         1.4598777595     1.4102963396     0.2941558923
Bq         1.2287679806     1.2822474083     1.1544998591
Bq         1.4855566239     1.4245239986     0.1985621182
Bq         1.3571623022     1.3533857035     0.6765309887
Bq         1.3277923874     1.4381407385     0.7858653023
Bq         1.3791501160     1.4665960565     0.5946777541
Bq         1.3021135231     1.4239130794     0.8814590764
Bq         1.4048289804     1.4808237156     0.4990839800
Bq         1.2764346587     1.4096854204     0.9770528505
Bq         1.4305078447     1.4950513746     0.4034902059
Bq         1.2507557944     1.3954577614     1.0726466246
Bq         1.4561867090     1.5092790336     0.3078964318
Bq         1.2250769301     1.3812301024     1.1682403987
Bq         1.4818655733     1.5235066926     0.2123026577
Bq         1.3534712517     1.4523683975     0.6902715282
Bq         1.3241013369     1.5371234325     0.7996058419
Bq         1.3754590655     1.5655787506     0.6084182937
Bq         1.2984224725     1.5228957735     0.8951996160
Bq         1.4011379298     1.5798064096     0.5128245196
Bq         1.2727436082     1.5086681145     0.9907933901
Bq         1.4268167941     1.5940340686     0.4172307455
Bq         1.2470647439     1.4944404554     1.0863871642
Bq         1.4524956585     1.6082617277     0.3216369714
Bq         1.2213858796     1.4802127964     1.1819809383
Bq         1.4781745228     1.6224893867     0.2260431973
Bq         1.3497802012     1.5513510915     0.7040120678
Bq         1.3204102863     1.6361061265     0.8133463814
Bq         1.3717680150     1.6645614446     0.6221588332
Bq         1.2947314220     1.6218784675     0.9089401555
Bq         1.3974468793     1.6787891036     0.5265650592
Bq         1.2690525577     1.6076508085     1.0045339296
Bq         1.4231257436     1.6930167627     0.4309712851
Bq         1.2433736934     1.5934231495     1.1001277037
Bq         1.4488046079     1.7072444217     0.3353775110
Bq         1.2176948290     1.5791954904     1.1957214778
Bq         1.4744834723     1.7214720807     0.2397837369
Bq         1.3460891506     1.6503337856     0.7177526073
Bq         1.3167192358     1.7350888206     0.8270869210
Bq         1.3680769644     1.7635441386     0.6358993728
Bq         1.2910403715     1.7208611616     0.9226806951
Bq         1.3937558288     1.7777717977     0.5403055987
Bq         1.2653615071     1.7066335025     1.0182744692
Bq         1.4194346931     1.7919994567     0.4447118246
Bq         1.2396826428     1.6924058435     1.1138682433
Bq         1.4451135574     1.8062271157     0.3491180505
Bq         1.2140037785     1.6781781845     1.2094620174
Bq         1.4707924217     1.8204547748     0.2535242764
Bq         1.3423981001     1.7493164796     0.7314931469
Bq         1.3130281852     1.8340715146     0.8408274606
Bq         1.3643859139     1.8625268327     0.6496399124
Bq         1.2873493209     1.8198438556     0.9364212346
Bq         1.3900647782     1.8767544917     0.5540461383
Bq         1.2616704566     1.8056161966     1.0320150087
Bq         1.4157436425     1.8909821507     0.4584523642
Bq         1.2359915923     1.7913885375     1.1276087828
Bq         1.4414225069     1.9052098098     0.3628585901
Bq         1.2103127280     1.7771608785     1.2232025569
Bq         1.4671013712     1.9194374688     0.2672648160
Bq         1.3387070496     1.8482991736     0.7452336865
Bq         1.3093371347     1.9330542087     0.8545680001
Bq         1.3606948634     1.9615095267     0.6633804519
Bq         1.2836582704     1.9188265496     0.9501617742
Bq         1.3863737277     1.9757371857     0.5677866778
Bq         1.2579794061     1.9045988906     1.0457555483
Bq         1.4120525920     1.9899648448     0.4721929037
Bq         1.2323005417     1.8903712316     1.1413493224
Bq         1.4377314563     2.0041925038     0.3765991296
Bq         1.2066216774     1.8761435725     1.2369430965
Bq         1.4634103206     2.0184201628     0.2810053555
Bq         1.3350159990     1.9472818677     0.7589742260
Bq         1.3056460842     2.0320369027     0.8683085397
Bq         1.3570038128     2.0604922207     0.6771209915
Bq         1.2799672199     2.0178092437     0.9639023138
Bq         1.3826826771     2.0747198798     0.5815272174
Bq         1.2542883555     2.0035815846     1.0594960879
Bq         1.4083615415     2.0889475388     0.4859334433
Bq         1.2286094912     1.9893539256     1.1550898620
Bq         1.4340404058     2.1031751978     0.3903396692
Bq         1.2029306269     1.9751262666     1.2506836360
Bq         1.4597192701     2.1174028569     0.2947458951
Bq         1.3313249485     2.0462645617     0.7727147656
Bq         1.3019550336     2.1310195967     0.8820490792
Bq         1.3533127623     2.1594749148     0.6908615310
Bq         1.2762761693     2.1167919377     0.9776428533
Bq         1.3789916266     2.1737025738     0.5952677569
Bq         1.2505973050     2.1025642787     1.0732366274
Bq         1.4046704909     2.1879302328     0.4996739828
Bq         1.2249184407     2.0883366196     1.1688304015
Bq         1.4303493553     2.2021578919     0.4040802088
Bq         1.1992395764     2.0741089606     1.2644241756
Bq         1.4560282196     2.2163855509     0.3084864347
Bq         1.3276338980     2.1452472558     0.7864553051
Bq         1.5830838105    -2.8181151051     0.2209648831
Bq         1.6344415391    -2.7896597870     0.0297773349
Bq         1.5574049461    -2.8323427641     0.3165586572
Bq         1.6601204034    -2.7754321280    -0.0658164392
Bq         1.5317260818    -2.8465704231     0.4121524313
Bq         1.6857992677    -2.7612044690    -0.1614102133
Bq         1.5060472175    -2.8607980821     0.5077462054
Bq         1.7114781321    -2.7469768099    -0.2570039874
Bq         1.4803683532    -2.8750257412     0.6033399795
Bq         1.7371569964    -2.7327491509    -0.3525977615
Bq         1.6087626748    -2.8038874460     0.1253711090
Bq         1.5793927599    -2.7191324110     0.2347054226
Bq         1.6307504886    -2.6906770930     0.0435178744
Bq         1.5537138956    -2.7333600701     0.3302991967
Bq         1.6564293529    -2.6764494339    -0.0520758997
Bq         1.5280350313    -2.7475877291     0.4258929708
Bq         1.6821082172    -2.6622217749    -0.1476696737
Bq         1.5023561670    -2.7618153881     0.5214867449
Bq         1.7077870815    -2.6479941159    -0.2432634478
Bq         1.4766773026    -2.7760430471     0.6170805190
Bq         1.7334659459    -2.6337664569    -0.3388572219
Bq         1.6050716242    -2.7049047520     0.1391116485
Bq         1.5757017094    -2.6201497170     0.2484459622
Bq         1.6270594380    -2.5916943989     0.0572584140
Bq         1.5500228451    -2.6343773760     0.3440397363
Bq         1.6527383024    -2.5774667399    -0.0383353601
Bq         1.5243439807    -2.6486050350     0.4396335104
Bq         1.6784171667    -2.5632390809    -0.1339291342
Bq         1.4986651164    -2.6628326941     0.5352272845
Bq         1.7040960310    -2.5490114219    -0.2295229083
Bq         1.4729862521    -2.6770603531     0.6308210586
Bq         1.7297748953    -2.5347837628    -0.3251166824
Bq         1.6013805737    -2.6059220580     0.1528521881
Bq         1.5720106589    -2.5211670230     0.2621865018
Bq         1.6233683875    -2.4927117049     0.0709989536
Bq         1.5463317945    -2.5353946820     0.3577802758
Bq         1.6490472518    -2.4784840459    -0.0245948205
Bq         1.5206529302    -2.5496223410     0.4533740499
Bq         1.6747261161    -2.4642563868    -0.1201885946
Bq         1.4949740659    -2.5638500000     0.5489678240
Bq         1.7004049805    -2.4500287278    -0.2157823687
Bq         1.4692952016    -2.5780776591     0.6445615981
Bq         1.7260838448    -2.4358010688    -0.3113761428
Bq         1.5976895232    -2.5069393639     0.1665927277
Bq         1.5683196083    -2.4221843289     0.2759270413
Bq         1.6196773370    -2.3937290109     0.0847394931
Bq         1.5426407440    -2.4364119879     0.3715208154
Bq         1.6453562013    -2.3795013518    -0.0108542810
Bq         1.5169618797    -2.4506396470     0.4671145895
Bq         1.6710350656    -2.3652736928    -0.1064480551
Bq         1.4912830153    -2.4648673060     0.5627083636
Bq         1.6967139299    -2.3510460338    -0.2020418292
Bq         1.4656041510    -2.4790949650     0.6583021377
Bq         1.7223927943    -2.3368183748    -0.2976356033
Bq         1.5939984726    -2.4079566699     0.1803332672
Bq         1.5646285578    -2.3232016349     0.2896675809
Bq         1.6159862864    -2.2947463168     0.0984800327
Bq         1.5389496935    -2.3374292939     0.3852613550
Bq         1.6416651507    -2.2805186578     0.0028862586
Bq         1.5132708291    -2.3516569529     0.4808551291
Bq         1.6673440151    -2.2662909988    -0.0927075155
Bq         1.4875919648    -2.3658846120     0.5764489032
Bq         1.6930228794    -2.2520633397    -0.1883012896
Bq         1.4619131005    -2.3801122710     0.6720426772
Bq         1.7187017437    -2.2378356807    -0.2838950637
Bq         1.5903074221    -2.3089739759     0.1940738068
Bq         1.5609375072    -2.2242189408     0.3034081204
Bq         1.6122952359    -2.1957636228     0.1122205722
Bq         1.5352586429    -2.2384465999     0.3990018945
Bq         1.6379741002    -2.1815359638     0.0166267981
Bq         1.5095797786    -2.2526742589     0.4945956686
Bq         1.6636529645    -2.1673083047    -0.0789669760
Bq         1.4839009143    -2.2669019179     0.5901894427
Bq         1.6893318289    -2.1530806457    -0.1745607500
Bq         1.4582220500    -2.2811295770     0.6857832168
Bq         1.7150106932    -2.1388529867    -0.2701545241
Bq         1.5866163716    -2.2099912818     0.2078143463
Bq         1.5572464567    -2.1252362468     0.3171486600
Bq         1.6086041854    -2.0967809288     0.1259611118
Bq         1.5315675924    -2.1394639058     0.4127424341
Bq         1.6342830497    -2.0825532697     0.0303673377
Bq         1.5058887281    -2.1536915649     0.5083362082
Bq         1.6599619140    -2.0683256107    -0.0652264364
Bq         1.4802098637    -2.1679192239     0.6039299823
Bq         1.6856407783    -2.0540979517    -0.1608202105
Bq         1.4545309994    -2.1821468829     0.6995237564
Bq         1.7113196426    -2.0398702926    -0.2564139846
Bq         1.5829253210    -2.1110085878     0.2215548859
Bq         1.5535554062    -2.0262535528     0.3308891995
Bq         1.6049131348    -1.9977982347     0.1397016514
Bq         1.5278765419    -2.0404812118     0.4264829736
Bq         1.6305919991    -1.9835705757     0.0441078773
Bq         1.5021976775    -2.0547088708     0.5220767477
Bq         1.6562708635    -1.9693429167    -0.0514858968
Bq         1.4765188132    -2.0689365299     0.6176705218
Bq         1.6819497278    -1.9551152576    -0.1470796709
Bq         1.4508399489    -2.0831641889     0.7132642959
Bq         1.7076285921    -1.9408875986    -0.2426734450
Bq         1.5792342705    -2.0120258937     0.2352954254
Bq         1.5498643556    -1.9272708587     0.3446297391
Bq         1.6012220843    -1.8988155407     0.1534421909

1
2
3
4
5
6
7
8
9
10
11
12
13
14
15
16
17
18
19
20
21
22
23
24
25
26
27
28
29
30
31
32
33
34
35
36
37
38
39
40
41
42
43
44
45
46
47
48
49
50
51
52
53
54
55
56
57
58
59
60
61
62
63
64
65
66
67
68
69
70
71
72
73
74
75
76
77
78
79
80
81
82
83
84
85
86
87
88
89
90
91
92
93
94
95
96
97
98
99
100
101
102
103
104
105
106
107
108
109
110
111
112
113
114
115
116
117
118
119
120
121
122
123
124
125
126
127
128
129
130
131
132
133
134
135
136
137
138
139
140
141
142
143
144
145
146
147
148
149
150
151
152
153
154
155
156
157
158
159
160
161
162
163
164
165
166
167
168
169
170
171
172
173
174
175
176
177
178
179
180
181
182
183
184
185
186
187
188
189
190
191
192
193
194
195
196
197
198
199
200
201
202
203
204
205
206
207
208
209
210
211
212
213
214
215
216
217
218
219
220
221
222
223
224
225
226
227
228
229
230
231
232
233
234
235
236

