%nproc=8
%mem=1000MB
# rb3lyp/6-311+g** NMR geom=connectivity

Title

0 1
C    -4.0500558   -0.5771862    0.8136712
H    -5.0263804   -1.0082727    1.0024760
C    -3.9381552    0.6617804    0.2400876
H    -4.8252424    1.2338890   -0.0111295
C    -2.6768410    1.2433246    0.0057578
C    -1.4974121    0.5051527    0.2848253
C    -1.6508332   -0.7338728    0.9404026
H    -0.7713646   -1.2730967    1.2633753
C    -2.8898548   -1.2624035    1.1994307
H    -2.9683706   -2.2124563    1.7152676
C    -2.5773185    2.5963696   -0.4192930
H    -3.4870728    3.1412239   -0.6474055
C    -1.3741895    3.2147896   -0.4364030
H    -1.2997315    4.2742019   -0.6578144
C    -0.1719488    2.4994090   -0.1734588
C    -0.2043917    1.1018437    0.0192689
C     1.0513491    3.2042560   -0.0676222
H     1.0427344    4.2819499   -0.1896997
C     2.1942091    2.5487446    0.2579577
H     3.1168527    3.0912848    0.4334727
C     2.2216473    1.1336562    0.2934990
C     1.0486931    0.3945528    0.0302412
C     3.4483363    0.4614633    0.5573939
H     4.3095794    1.0606054    0.8334846
C     3.5427346   -0.8855926    0.4749463
H     4.4731467   -1.3939704    0.7038822
C     2.4490052   -1.6474447   -0.0196319
C     1.2150704   -1.0057258   -0.3013573
C     0.2531113   -1.7434440   -1.0216591
H    -0.6541356   -1.2535051   -1.3462847
C     0.4494193   -3.0628597   -1.3413779
H    -0.3083162   -3.5944309   -1.9054060
C     1.6251726   -3.7207967   -0.9552541
H     1.7670048   -4.7687404   -1.1927019
C     2.6109872   -3.0144177   -0.3183050
H     3.5525612   -3.4902813   -0.0646367
Bq        -0.8180080346     3.5362578035     0.2105744981
Bq        -0.8317718537     3.6410505039     0.3045375079
Bq        -0.8028199476     3.6312235338     0.1068882788
Bq        -0.8462478067     3.6459639890     0.4033621225
Bq        -0.7883439945     3.6263100487     0.0080636642
Bq        -0.8607237598     3.6508774741     0.5021867371
Bq        -0.7738680415     3.6213965636    -0.0907609504
Bq        -0.8751997128     3.6557909592     0.6010113517
Bq        -0.7593920884     3.6164830785    -0.1895855650
Bq        -0.8896756658     3.6607044443     0.6998359663
Bq        -0.7449161354     3.6115695935    -0.2884101796
Bq        -0.8172959006     3.6361370189     0.2057128933
Bq        -0.8310597197     3.7409297193     0.2996759032
Bq        -0.8021078136     3.7311027492     0.1020266740
Bq        -0.8455356728     3.7458432044     0.3985005177
Bq        -0.7876318606     3.7261892641     0.0032020594
Bq        -0.8600116258     3.7507566895     0.4973251323
Bq        -0.7731559076     3.7212757790    -0.0956225552
Bq        -0.8744875789     3.7556701746     0.5961497469
Bq        -0.7586799545     3.7163622939    -0.1944471698
Bq        -0.8889635319     3.7605836597     0.6949743615
Bq        -0.7442040015     3.7114488088    -0.2932717843
Bq        -0.8165837667     3.7360162342     0.2008512886
Bq        -0.8303475858     3.8408089347     0.2948142984
Bq        -0.8013956797     3.8309819645     0.0971650692
Bq        -0.8448235388     3.8457224198     0.3936389130
Bq        -0.7869197267     3.8260684795    -0.0016595454
Bq        -0.8592994919     3.8506359049     0.4924635276
Bq        -0.7724437736     3.8211549944    -0.1004841599
Bq        -0.8737754449     3.8555493900     0.5912881421
Bq        -0.7579678206     3.8162415093    -0.1993087745
Bq        -0.8882513980     3.8604628750     0.6901127567
Bq        -0.7434918675     3.8113280242    -0.2981333891
Bq        -0.8158716327     3.8358954496     0.1959896838
Bq        -0.8296354518     3.9406881501     0.2899526936
Bq        -0.8006835458     3.9308611799     0.0923034645
Bq        -0.8441114049     3.9456016352     0.3887773082
Bq        -0.7862075927     3.9259476948    -0.0065211501
Bq        -0.8585873579     3.9505151202     0.4876019228
Bq        -0.7717316397     3.9210342098    -0.1053457647
Bq        -0.8730633110     3.9554286053     0.5864265374
Bq        -0.7572556866     3.9161207247    -0.2041703793
Bq        -0.8875392640     3.9603420904     0.6852511520
Bq        -0.7427797336     3.9112072396    -0.3029949939
Bq        -0.8151594988     3.9357746650     0.1911280790
Bq        -0.8289233179     4.0405673655     0.2850910889
Bq        -0.7999714118     4.0307403953     0.0874418597
Bq        -0.8433992709     4.0454808505     0.3839157034
Bq        -0.7854954588     4.0258269102    -0.0113827549
Bq        -0.8578752240     4.0503943356     0.4827403180
Bq        -0.7710195057     4.0209134251    -0.1102073695
Bq        -0.8723511770     4.0553078207     0.5815649326
Bq        -0.7565435527     4.0159999400    -0.2090319841
Bq        -0.8868271301     4.0602213058     0.6803895472
Bq        -0.7420675996     4.0110864550    -0.3078565986
Bq        -0.8144473649     4.0356538804     0.1862664743
Bq        -0.8282111840     4.1404465808     0.2802294841
Bq        -0.7992592779     4.1306196107     0.0825802549
Bq        -0.8426871370     4.1453600659     0.3790540987
Bq        -0.7847833248     4.1257061256    -0.0162443597
Bq        -0.8571630901     4.1502735510     0.4778787133
Bq        -0.7703073718     4.1207926405    -0.1150689742
Bq        -0.8716390431     4.1551870361     0.5767033278
Bq        -0.7558314187     4.1158791554    -0.2138935888
Bq        -0.8861149961     4.1601005212     0.6755279424
Bq        -0.7413554657     4.1109656703    -0.3127182034
Bq        -0.8137352309     4.1355330958     0.1814048695
Bq        -0.8274990500     4.2403257962     0.2753678793
Bq        -0.7985471439     4.2304988260     0.0777186502
Bq        -0.8419750031     4.2452392813     0.3741924939
Bq        -0.7840711909     4.2255853410    -0.0211059644
Bq        -0.8564509561     4.2501527664     0.4730171085
Bq        -0.7695952378     4.2206718559    -0.1199305790
Bq        -0.8709269092     4.2550662515     0.5718417231
Bq        -0.7551192848     4.2157583708    -0.2187551936
Bq        -0.8854028622     4.2599797365     0.6706663377
Bq        -0.7406433318     4.2108448857    -0.3175798082
Bq        -0.8130230970     4.2354123111     0.1765432647
Bq        -0.8267869161     4.3402050116     0.2705062746
Bq        -0.7978350100     4.3303780414     0.0728570454
Bq        -0.8412628691     4.3451184967     0.3693308891
Bq        -0.7833590569     4.3254645563    -0.0259675692
Bq        -0.8557388222     4.3500319818     0.4681555037
Bq        -0.7688831039     4.3205510713    -0.1247921838
Bq        -0.8702147752     4.3549454668     0.5669801183
Bq        -0.7544071509     4.3156375862    -0.2236167984
Bq        -0.8846907283     4.3598589519     0.6658047329
Bq        -0.7399311978     4.3107241011    -0.3224414129
Bq        -0.8123109630     4.3352915265     0.1716816600
Bq        -0.7634494893    -0.6537557573     0.5280799718
Bq        -0.7344975832    -0.6635827274     0.3304307426
Bq        -0.7779254423    -0.6488422722     0.6269045864
Bq        -0.7200216302    -0.6684962125     0.2316061280
Bq        -0.7924013954    -0.6439287871     0.7257292010
Bq        -0.7055456771    -0.6734096976     0.1327815135
Bq        -0.8068773484    -0.6390153020     0.8245538156
Bq        -0.6910697241    -0.6783231827     0.0339568989
Bq        -0.8213533015    -0.6341018169     0.9233784301
Bq        -0.6765937710    -0.6832366678    -0.0648677157
Bq        -0.7489735362    -0.6586692423     0.4292553572
Bq        -0.7627373553    -0.5538765419     0.5232183670
Bq        -0.7337854493    -0.5637035121     0.3255691379
Bq        -0.7772133084    -0.5489630568     0.6220429816
Bq        -0.7193094962    -0.5686169971     0.2267445233
Bq        -0.7916892614    -0.5440495717     0.7208675962
Bq        -0.7048335432    -0.5735304822     0.1279199087
Bq        -0.8061652145    -0.5391360866     0.8196922108
Bq        -0.6903575901    -0.5784439673     0.0290952941
Bq        -0.8206411675    -0.5342226016     0.9185168254
Bq        -0.6758816371    -0.5833574524    -0.0697293205
Bq        -0.7482614023    -0.5587900270     0.4243937524
Bq        -0.7620252214    -0.4539973265     0.5183567623
Bq        -0.7330733153    -0.4638242967     0.3207075331
Bq        -0.7765011745    -0.4490838414     0.6171813769
Bq        -0.7185973623    -0.4687377818     0.2218829185
Bq        -0.7909771275    -0.4441703563     0.7160059914
Bq        -0.7041214092    -0.4736512668     0.1230583039
Bq        -0.8054530805    -0.4392568713     0.8148306060
Bq        -0.6896454562    -0.4785647519     0.0242336893
Bq        -0.8199290336    -0.4343433862     0.9136552206
Bq        -0.6751695031    -0.4834782370    -0.0745909252
Bq        -0.7475492684    -0.4589108116     0.4195321477
Bq        -0.7613130875    -0.3541181111     0.5134951575
Bq        -0.7323611814    -0.3639450813     0.3158459283
Bq        -0.7757890405    -0.3492046261     0.6123197721
Bq        -0.7178852283    -0.3688585664     0.2170213137
Bq        -0.7902649936    -0.3442911410     0.7111443867
Bq        -0.7034092753    -0.3737720515     0.1181966992
Bq        -0.8047409466    -0.3393776559     0.8099690013
Bq        -0.6889333222    -0.3786855365     0.0193720846
Bq        -0.8192168996    -0.3344641708     0.9087936158
Bq        -0.6744573692    -0.3835990216    -0.0794525300
Bq        -0.7468371344    -0.3590315962     0.4146705429
Bq        -0.7606009535    -0.2542388958     0.5086335527
Bq        -0.7316490474    -0.2640658659     0.3109843236
Bq        -0.7750769066    -0.2493254107     0.6074581673
Bq        -0.7171730944    -0.2689793510     0.2121597090
Bq        -0.7895528596    -0.2444119256     0.7062827819
Bq        -0.7026971413    -0.2738928361     0.1133350944
Bq        -0.8040288127    -0.2394984405     0.8051073965
Bq        -0.6882211883    -0.2788063212     0.0145104798
Bq        -0.8185047657    -0.2345849554     0.9039320111
Bq        -0.6737452353    -0.2837198063    -0.0843141348
Bq        -0.7461250005    -0.2591523808     0.4098089381
Bq        -0.7598888196    -0.1543596804     0.5037719480
Bq        -0.7309369135    -0.1641866505     0.3061227188
Bq        -0.7743647726    -0.1494461953     0.6025965626
Bq        -0.7164609604    -0.1691001356     0.2072981042
Bq        -0.7888407257    -0.1445327102     0.7014211771
Bq        -0.7019850074    -0.1740136207     0.1084734896
Bq        -0.8033166787    -0.1396192251     0.8002457917
Bq        -0.6875090544    -0.1789271058     0.0096488750
Bq        -0.8177926318    -0.1347057400     0.8990704063
Bq        -0.6730331013    -0.1838405909    -0.0891757395
Bq        -0.7454128665    -0.1592731655     0.4049473334
Bq        -0.7591766856    -0.0544804650     0.4989103432
Bq        -0.7302247796    -0.0643074352     0.3012611140
Bq        -0.7736526387    -0.0495669799     0.5977349578
Bq        -0.7157488265    -0.0692209203     0.2024364994
Bq        -0.7881285917    -0.0446534948     0.6965595724
Bq        -0.7012728735    -0.0741344053     0.1036118849
Bq        -0.8026045448    -0.0397400098     0.7953841870
Bq        -0.6867969204    -0.0790478904     0.0047872703
Bq        -0.8170804978    -0.0348265247     0.8942088015
Bq        -0.6723209674    -0.0839613755    -0.0940373443
Bq        -0.7447007326    -0.0593939501     0.4000857286
Bq        -0.7584645517     0.0453987504     0.4940487384
Bq        -0.7295126456     0.0355717802     0.2963995093
Bq        -0.7729405047     0.0503122355     0.5928733530
Bq        -0.7150366926     0.0306582951     0.1975748947
Bq        -0.7874164578     0.0552257205     0.6916979676
Bq        -0.7005607395     0.0257448100     0.0987502801
Bq        -0.8018924108     0.0601392056     0.7905225822
Bq        -0.6860847865     0.0208313250    -0.0000743345
Bq        -0.8163683639     0.0650526907     0.8893471968
Bq        -0.6716088334     0.0159178399    -0.0988989491
Bq        -0.7439885987     0.0404852653     0.3952241238
Bq        -0.7577524178     0.1452779658     0.4891871337
Bq        -0.7288005117     0.1354509956     0.2915379045
Bq        -0.7722283708     0.1501914508     0.5880117483
Bq        -0.7143245586     0.1305375105     0.1927132899
Bq        -0.7867043238     0.1551049359     0.6868363628
Bq        -0.6998486056     0.1256240254     0.0938886753
Bq        -0.8011802769     0.1600184210     0.7856609774
Bq        -0.6853726525     0.1207105403    -0.0049359393
Bq        -0.8156562299     0.1649319061     0.8844855920
Bq        -0.6708966995     0.1157970553    -0.1037605538
Bq        -0.7432764647     0.1403644807     0.3903625191
Bq        -0.7570402838     0.2451571811     0.4843255289
Bq        -0.7280883777     0.2353302110     0.2866762997
Bq        -0.7715162369     0.2500706662     0.5831501435
Bq        -0.7136124247     0.2304167259     0.1878516851
Bq        -0.7859921899     0.2549841513     0.6819747581
Bq        -0.6991364716     0.2255032408     0.0890270706
Bq        -0.8004681429     0.2598976364     0.7807993727
Bq        -0.6846605186     0.2205897557    -0.0097975440
Bq        -0.8149440960     0.2648111215     0.8796239872
Bq        -0.6701845655     0.2156762706    -0.1086221586
Bq        -0.7425643308     0.2402436960     0.3855009143
Bq        -0.7563281499     0.3450363965     0.4794639241

1
2
3
4
5
6
7
8
9
10
11
12
13
14
15
16
17
18
19
20
21
22
23
24
25
26
27
28
29
30
31
32
33
34
35
36
37
38
39
40
41
42
43
44
45
46
47
48
49
50
51
52
53
54
55
56
57
58
59
60
61
62
63
64
65
66
67
68
69
70
71
72
73
74
75
76
77
78
79
80
81
82
83
84
85
86
87
88
89
90
91
92
93
94
95
96
97
98
99
100
101
102
103
104
105
106
107
108
109
110
111
112
113
114
115
116
117
118
119
120
121
122
123
124
125
126
127
128
129
130
131
132
133
134
135
136
137
138
139
140
141
142
143
144
145
146
147
148
149
150
151
152
153
154
155
156
157
158
159
160
161
162
163
164
165
166
167
168
169
170
171
172
173
174
175
176
177
178
179
180
181
182
183
184
185
186
187
188
189
190
191
192
193
194
195
196
197
198
199
200
201
202
203
204
205
206
207
208
209
210
211
212
213
214
215
216
217
218
219
220
221
222
223
224
225
226
227
228
229
230
231
232
233
234
235
236

