%nproc=8
%mem=1000MB
# rb3lyp/6-311+g** NMR geom=connectivity

Title

0 1
C    -4.0500558   -0.5771862    0.8136712
H    -5.0263804   -1.0082727    1.0024760
C    -3.9381552    0.6617804    0.2400876
H    -4.8252424    1.2338890   -0.0111295
C    -2.6768410    1.2433246    0.0057578
C    -1.4974121    0.5051527    0.2848253
C    -1.6508332   -0.7338728    0.9404026
H    -0.7713646   -1.2730967    1.2633753
C    -2.8898548   -1.2624035    1.1994307
H    -2.9683706   -2.2124563    1.7152676
C    -2.5773185    2.5963696   -0.4192930
H    -3.4870728    3.1412239   -0.6474055
C    -1.3741895    3.2147896   -0.4364030
H    -1.2997315    4.2742019   -0.6578144
C    -0.1719488    2.4994090   -0.1734588
C    -0.2043917    1.1018437    0.0192689
C     1.0513491    3.2042560   -0.0676222
H     1.0427344    4.2819499   -0.1896997
C     2.1942091    2.5487446    0.2579577
H     3.1168527    3.0912848    0.4334727
C     2.2216473    1.1336562    0.2934990
C     1.0486931    0.3945528    0.0302412
C     3.4483363    0.4614633    0.5573939
H     4.3095794    1.0606054    0.8334846
C     3.5427346   -0.8855926    0.4749463
H     4.4731467   -1.3939704    0.7038822
C     2.4490052   -1.6474447   -0.0196319
C     1.2150704   -1.0057258   -0.3013573
C     0.2531113   -1.7434440   -1.0216591
H    -0.6541356   -1.2535051   -1.3462847
C     0.4494193   -3.0628597   -1.3413779
H    -0.3083162   -3.5944309   -1.9054060
C     1.6251726   -3.7207967   -0.9552541
H     1.7670048   -4.7687404   -1.1927019
C     2.6109872   -3.0144177   -0.3183050
H     3.5525612   -3.4902813   -0.0646367
Bq        -0.1832828658    -1.2457509136    -0.4846890973
Bq        -0.2341511030    -1.1759735820    -0.3726911221
Bq        -0.1544275754    -1.1227422798    -0.5482205715
Bq        -0.2740128668    -1.2025892331    -0.2849263974
Bq        -0.1145658116    -1.0961266287    -0.6359852962
Bq        -0.3138746306    -1.2292048842    -0.1971616727
Bq        -0.0747040478    -1.0695109776    -0.7237500210
Bq        -0.3537363944    -1.2558205353    -0.1093969480
Bq        -0.0348422841    -1.0428953265    -0.8115147457
Bq        -0.3935981581    -1.2824361864    -0.0216322233
Bq         0.0050194797    -1.0162796754    -0.8992794704
Bq        -0.1942893392    -1.1493579309    -0.4604558468
Bq        -0.2451575764    -1.0795805993    -0.3484578717
Bq        -0.1654340488    -1.0263492971    -0.5239873211
Bq        -0.2850193401    -1.1061962504    -0.2606931469
Bq        -0.1255722850    -0.9997336460    -0.6117520458
Bq        -0.3248811039    -1.1328119015    -0.1729284222
Bq        -0.0857105212    -0.9731179949    -0.6995167705
Bq        -0.3647428677    -1.1594275526    -0.0851636975
Bq        -0.0458487574    -0.9465023438    -0.7872814952
Bq        -0.4046046315    -1.1860432037     0.0026010272
Bq        -0.0059869936    -0.9198866927    -0.8750462199
Bq        -0.2052958126    -1.0529649482    -0.4362225964
Bq        -0.2561640497    -0.9831876166    -0.3242246212
Bq        -0.1764405222    -0.9299563144    -0.4997540706
Bq        -0.2960258135    -1.0098032677    -0.2364598965
Bq        -0.1365787584    -0.9033406633    -0.5875187953
Bq        -0.3358875773    -1.0364189188    -0.1486951718
Bq        -0.0967169946    -0.8767250122    -0.6752835200
Bq        -0.3757493411    -1.0630345699    -0.0609304471
Bq        -0.0568552308    -0.8501093610    -0.7630482448
Bq        -0.4156111049    -1.0896502210     0.0268342777
Bq        -0.0169934670    -0.8234937099    -0.8508129695
Bq        -0.2163022859    -0.9565719655    -0.4119893459
Bq        -0.2671705231    -0.8867946339    -0.2999913707
Bq        -0.1874469955    -0.8335633317    -0.4755208202
Bq        -0.3070322869    -0.9134102850    -0.2122266460
Bq        -0.1475852317    -0.8069476805    -0.5632855449
Bq        -0.3468940507    -0.9400259361    -0.1244619213
Bq        -0.1077234680    -0.7803320294    -0.6510502696
Bq        -0.3867558145    -0.9666415872    -0.0366971966
Bq        -0.0678617042    -0.7537163783    -0.7388149943
Bq        -0.4266175783    -0.9932572383     0.0510675281
Bq        -0.0279999404    -0.7271007272    -0.8265797190
Bq        -0.2273087593    -0.8601789828    -0.3877560954
Bq        -0.2781769965    -0.7904016512    -0.2757581203
Bq        -0.1984534689    -0.7371703489    -0.4512875697
Bq        -0.3180387603    -0.8170173023    -0.1879933956
Bq        -0.1585917051    -0.7105546978    -0.5390522944
Bq        -0.3579005241    -0.8436329534    -0.1002286709
Bq        -0.1187299413    -0.6839390467    -0.6268170191
Bq        -0.3977622878    -0.8702486045    -0.0124639461
Bq        -0.0788681775    -0.6573233956    -0.7145817438
Bq        -0.4376240516    -0.8968642556     0.0753007786
Bq        -0.0390064138    -0.6307077445    -0.8023464686
Bq        -0.2383152327    -0.7637860000    -0.3635228450
Bq        -0.2891834699    -0.6940086684    -0.2515248698
Bq        -0.2094599423    -0.6407773662    -0.4270543192
Bq        -0.3290452336    -0.7206243196    -0.1637601451
Bq        -0.1695981785    -0.6141617151    -0.5148190440
Bq        -0.3689069974    -0.7472399707    -0.0759954204
Bq        -0.1297364147    -0.5875460640    -0.6025837687
Bq        -0.4087687612    -0.7738556218     0.0117693043
Bq        -0.0898746509    -0.5609304129    -0.6903484934
Bq        -0.4486305250    -0.8004712729     0.0995340290
Bq        -0.0500128871    -0.5343147618    -0.7781132181
Bq        -0.2493217061    -0.6673930173    -0.3392895945
Bq        -0.3001899432    -0.5976156857    -0.2272916194
Bq        -0.2204664156    -0.5443843835    -0.4028210688
Bq        -0.3400517070    -0.6242313368    -0.1395268946
Bq        -0.1806046519    -0.5177687324    -0.4905857935
Bq        -0.3799134708    -0.6508469879    -0.0517621699
Bq        -0.1407428881    -0.4911530813    -0.5783505182
Bq        -0.4197752346    -0.6774626391     0.0360025548
Bq        -0.1008811243    -0.4645374302    -0.6661152429
Bq        -0.4596369984    -0.7040782902     0.1237672795
Bq        -0.0610193605    -0.4379217791    -0.7538799676
Bq        -0.2603281794    -0.5710000346    -0.3150563441
Bq        -0.3111964166    -0.5012227030    -0.2030583689
Bq        -0.2314728890    -0.4479914008    -0.3785878183
Bq        -0.3510581804    -0.5278383541    -0.1152936442
Bq        -0.1916111252    -0.4213757497    -0.4663525430
Bq        -0.3909199442    -0.5544540052    -0.0275289195
Bq        -0.1517493614    -0.3947600986    -0.5541172678
Bq        -0.4307817080    -0.5810696563     0.0602358052
Bq        -0.1118875977    -0.3681444475    -0.6418819925
Bq        -0.4706434717    -0.6076853074     0.1480005299
Bq        -0.0720258339    -0.3415287964    -0.7296467172
Bq        -0.2713346528    -0.4746070519    -0.2908230936
Bq        -0.3222028900    -0.4048297203    -0.1788251184
Bq        -0.2424793624    -0.3515984181    -0.3543545679
Bq        -0.3620646538    -0.4314453714    -0.0910603937
Bq        -0.2026175986    -0.3249827670    -0.4421192926
Bq        -0.4019264175    -0.4580610225    -0.0032956690
Bq        -0.1627558348    -0.2983671159    -0.5298840173
Bq        -0.4417881813    -0.4846766736     0.0844690557
Bq        -0.1228940710    -0.2717514648    -0.6176487420
Bq        -0.4816499451    -0.5112923247     0.1722337804
Bq        -0.0830323072    -0.2451358137    -0.7054134667
Bq        -0.2823411262    -0.3782140692    -0.2665898432
Bq        -0.3332093633    -0.3084367376    -0.1545918680
Bq        -0.2534858358    -0.2552054354    -0.3301213174
Bq        -0.3730711271    -0.3350523887    -0.0668271433
Bq        -0.2136240720    -0.2285897843    -0.4178860421
Bq        -0.4129328909    -0.3616680398     0.0209375814
Bq        -0.1737623082    -0.2019741332    -0.5056507668
Bq        -0.4527946547    -0.3882836909     0.1087023062
Bq        -0.1339005444    -0.1753584821    -0.5934154916
Bq        -0.4926564185    -0.4148993420     0.1964670309
Bq        -0.0940387806    -0.1487428310    -0.6811802163
Bq        -0.2933475996    -0.2818210865    -0.2423565927
Bq        -0.3442158367    -0.2120437549    -0.1303586175
Bq        -0.2644923091    -0.1588124527    -0.3058880670
Bq        -0.3840776005    -0.2386594060    -0.0425938928
Bq        -0.2246305453    -0.1321968016    -0.3936527917
Bq        -0.4239393643    -0.2652750571     0.0451708319
Bq        -0.1847687816    -0.1055811505    -0.4814175164
Bq        -0.4638011281    -0.2918907082     0.1329355566
Bq        -0.1449070178    -0.0789654993    -0.5691822411
Bq        -0.5036628919    -0.3185063593     0.2207002813
Bq        -0.1050452540    -0.0523498482    -0.6569469658
Bq        -0.3043540729    -0.1854281038    -0.2181233422
Bq        -0.3552223101    -0.1156507722    -0.1061253671
Bq        -0.2754987825    -0.0624194700    -0.2816548165
Bq        -0.3950840739    -0.1422664233    -0.0183606424
Bq        -0.2356370187    -0.0358038189    -0.3694195412
Bq        -0.4349458377    -0.1688820744     0.0694040824
Bq        -0.1957752549    -0.0091881677    -0.4571842659
Bq        -0.4748076014    -0.1954977255     0.1571688071
Bq        -0.1559134911     0.0174274834    -0.5449489906
Bq        -0.5146693652    -0.2221133766     0.2449335318
Bq        -0.1160517274     0.0440431345    -0.6327137153
Bq        -0.3153605463    -0.0890351211    -0.1938900918
Bq         0.2861502318    -4.9352999078    -1.2764345023
Bq         0.3658737594    -4.8820686056    -1.4519639518
Bq         0.2462884680    -4.9619155589    -1.1886697776
Bq         0.4057355232    -4.8554529545    -1.5397286765
Bq         0.2064267043    -4.9885312100    -1.1009050529
Bq         0.4455972870    -4.8288373034    -1.6274934012
Bq         0.1665649405    -5.0151468611    -1.0131403282
Bq         0.4854590508    -4.8022216522    -1.7152581259
Bq         0.1267031767    -5.0417625122    -0.9253756035
Bq         0.5253208146    -4.7756060011    -1.8030228506
Bq         0.3260119956    -4.9086842567    -1.3641992271
Bq         0.2751437585    -4.8389069251    -1.2522012519
Bq         0.3548672860    -4.7856756229    -1.4277307013
Bq         0.2352819947    -4.8655225762    -1.1644365272
Bq         0.3947290498    -4.7590599717    -1.5154954260
Bq         0.1954202309    -4.8921382273    -1.0766718025
Bq         0.4345908136    -4.7324443206    -1.6032601507
Bq         0.1555584671    -4.9187538784    -0.9889070777
Bq         0.4744525774    -4.7058286695    -1.6910248754
Bq         0.1156967033    -4.9453695295    -0.9011423530
Bq         0.5143143412    -4.6792130184    -1.7787896002
Bq         0.3150055223    -4.8122912740    -1.3399659766
Bq         0.2641372851    -4.7425139424    -1.2279680014
Bq         0.3438608127    -4.6892826401    -1.4034974509
Bq         0.2242755213    -4.7691295935    -1.1402032767
Bq         0.3837225765    -4.6626669890    -1.4912621756
Bq         0.1844137575    -4.7957452446    -1.0524385520
Bq         0.4235843402    -4.6360513379    -1.5790269003
Bq         0.1445519937    -4.8223608957    -0.9646738273
Bq         0.4634461040    -4.6094356868    -1.6667916250
Bq         0.1046902299    -4.8489765468    -0.8769091026
Bq         0.5033078678    -4.5828200357    -1.7545563497
Bq         0.3039990489    -4.7158982912    -1.3157327261
Bq         0.2531308117    -4.6461209596    -1.2037347510
Bq         0.3328543393    -4.5928896574    -1.3792642004
Bq         0.2132690479    -4.6727366108    -1.1159700263
Bq         0.3727161031    -4.5662740063    -1.4670289251
Bq         0.1734072841    -4.6993522619    -1.0282053015
Bq         0.4125778669    -4.5396583552    -1.5547936498
Bq         0.1335455204    -4.7259679130    -0.9404405768
Bq         0.4524396307    -4.5130427041    -1.6425583745
Bq         0.0936837566    -4.7525835641    -0.8526758521
Bq         0.4923013944    -4.4864270530    -1.7303230992
Bq         0.2929925755    -4.6195053085    -1.2914994757
Bq         0.2421243383    -4.5497279769    -1.1795015005
Bq         0.3218478659    -4.4964966747    -1.3550309499
Bq         0.2022625746    -4.5763436280    -1.0917367758
Bq         0.3617096297    -4.4698810236    -1.4427956746
Bq         0.1624008108    -4.6029592791    -1.0039720511
Bq         0.4015713935    -4.4432653725    -1.5305603994
Bq         0.1225390470    -4.6295749303    -0.9162073264
Bq         0.4414331573    -4.4166497214    -1.6183251241
Bq         0.0826772832    -4.6561905814    -0.8284426017
Bq         0.4812949211    -4.3900340703    -1.7060898488
Bq         0.2819861021    -4.5231123258    -1.2672662252
Bq         0.2311178650    -4.4533349942    -1.1552682501
Bq         0.3108413925    -4.4001036920    -1.3307976995
Bq         0.1912561012    -4.4799506453    -1.0675035253
Bq         0.3507031563    -4.3734880409    -1.4185624242
Bq         0.1513943374    -4.5065662964    -0.9797388006
Bq         0.3905649201    -4.3468723898    -1.5063271489
Bq         0.1115325736    -4.5331819475    -0.8919740759
Bq         0.4304266839    -4.3202567387    -1.5940918736
Bq         0.0716708098    -4.5597975986    -0.8042093512
Bq         0.4702884477    -4.2936410876    -1.6818565983
Bq         0.2709796288    -4.4267193431    -1.2430329748
Bq         0.2201113916    -4.3569420115    -1.1310349996

1
2
3
4
5
6
7
8
9
10
11
12
13
14
15
16
17
18
19
20
21
22
23
24
25
26
27
28
29
30
31
32
33
34
35
36
37
38
39
40
41
42
43
44
45
46
47
48
49
50
51
52
53
54
55
56
57
58
59
60
61
62
63
64
65
66
67
68
69
70
71
72
73
74
75
76
77
78
79
80
81
82
83
84
85
86
87
88
89
90
91
92
93
94
95
96
97
98
99
100
101
102
103
104
105
106
107
108
109
110
111
112
113
114
115
116
117
118
119
120
121
122
123
124
125
126
127
128
129
130
131
132
133
134
135
136
137
138
139
140
141
142
143
144
145
146
147
148
149
150
151
152
153
154
155
156
157
158
159
160
161
162
163
164
165
166
167
168
169
170
171
172
173
174
175
176
177
178
179
180
181
182
183
184
185
186
187
188
189
190
191
192
193
194
195
196
197
198
199
200
201
202
203
204
205
206
207
208
209
210
211
212
213
214
215
216
217
218
219
220
221
222
223
224
225
226
227
228
229
230
231
232
233
234
235
236

