%nproc=8
%mem=1000MB
# rb3lyp/6-311+g** NMR geom=connectivity

Title

0 1
C    -4.0500558   -0.5771862    0.8136712
H    -5.0263804   -1.0082727    1.0024760
C    -3.9381552    0.6617804    0.2400876
H    -4.8252424    1.2338890   -0.0111295
C    -2.6768410    1.2433246    0.0057578
C    -1.4974121    0.5051527    0.2848253
C    -1.6508332   -0.7338728    0.9404026
H    -0.7713646   -1.2730967    1.2633753
C    -2.8898548   -1.2624035    1.1994307
H    -2.9683706   -2.2124563    1.7152676
C    -2.5773185    2.5963696   -0.4192930
H    -3.4870728    3.1412239   -0.6474055
C    -1.3741895    3.2147896   -0.4364030
H    -1.2997315    4.2742019   -0.6578144
C    -0.1719488    2.4994090   -0.1734588
C    -0.2043917    1.1018437    0.0192689
C     1.0513491    3.2042560   -0.0676222
H     1.0427344    4.2819499   -0.1896997
C     2.1942091    2.5487446    0.2579577
H     3.1168527    3.0912848    0.4334727
C     2.2216473    1.1336562    0.2934990
C     1.0486931    0.3945528    0.0302412
C     3.4483363    0.4614633    0.5573939
H     4.3095794    1.0606054    0.8334846
C     3.5427346   -0.8855926    0.4749463
H     4.4731467   -1.3939704    0.7038822
C     2.4490052   -1.6474447   -0.0196319
C     1.2150704   -1.0057258   -0.3013573
C     0.2531113   -1.7434440   -1.0216591
H    -0.6541356   -1.2535051   -1.3462847
C     0.4494193   -3.0628597   -1.3413779
H    -0.3083162   -3.5944309   -1.9054060
C     1.6251726   -3.7207967   -0.9552541
H     1.7670048   -4.7687404   -1.1927019
C     2.6109872   -3.0144177   -0.3183050
H     3.5525612   -3.4902813   -0.0646367
Bq        -1.0355183229     2.4921432640     0.3545011169
Bq        -1.0278343602     2.4430446292     0.1607737807
Bq        -1.0393603042     2.5166925813     0.4513647850
Bq        -1.0239923789     2.4184953118     0.0639101126
Bq        -1.0432022855     2.5412418987     0.5482284530
Bq        -1.0201503975     2.3939459944    -0.0329535555
Bq        -1.0470442668     2.5657912161     0.6450921211
Bq        -1.0163084162     2.3693966771    -0.1298172236
Bq        -1.0508862482     2.5903405335     0.7419557892
Bq        -1.0124664349     2.3448473597    -0.2266808917
Bq        -1.0316763415     2.4675939466     0.2576374488
Bq        -1.0345453686     2.5890830959     0.3299710874
Bq        -1.0268614060     2.5399844611     0.1362437513
Bq        -1.0383873500     2.6136324133     0.4268347555
Bq        -1.0230194246     2.5154351438     0.0393800832
Bq        -1.0422293313     2.6381817306     0.5236984236
Bq        -1.0191774433     2.4908858264    -0.0574835849
Bq        -1.0460713126     2.6627310480     0.6205620917
Bq        -1.0153354620     2.4663365090    -0.1543472530
Bq        -1.0499132939     2.6872803654     0.7174257598
Bq        -1.0114934807     2.4417871916    -0.2512109211
Bq        -1.0307033873     2.5645337785     0.2331074193
Bq        -1.0335724144     2.6860229278     0.3054410580
Bq        -1.0258884517     2.6369242931     0.1117137218
Bq        -1.0374143957     2.7105722452     0.4023047261
Bq        -1.0220464704     2.6123749757     0.0148500537
Bq        -1.0412563771     2.7351215626     0.4991683942
Bq        -1.0182044891     2.5878256583    -0.0820136144
Bq        -1.0450983584     2.7596708800     0.5960320623
Bq        -1.0143625078     2.5632763409    -0.1788772824
Bq        -1.0489403397     2.7842201973     0.6928957304
Bq        -1.0105205264     2.5387270236    -0.2757409505
Bq        -1.0297304331     2.6614736105     0.2085773899
Bq        -1.0325994602     2.7829627598     0.2809110286
Bq        -1.0249154975     2.7338641250     0.0871836924
Bq        -1.0364414415     2.8075120771     0.3777746967
Bq        -1.0210735162     2.7093148076    -0.0096799757
Bq        -1.0402834228     2.8320613945     0.4746383648
Bq        -1.0172315349     2.6847654903    -0.1065436438
Bq        -1.0441254042     2.8566107119     0.5715020328
Bq        -1.0133895535     2.6602161729    -0.2034073119
Bq        -1.0479673855     2.8811600293     0.6683657009
Bq        -1.0095475722     2.6356668555    -0.3002709800
Bq        -1.0287574789     2.7584134424     0.1840473605
Bq        -1.0316265060     2.8799025917     0.2563809992
Bq        -1.0239425433     2.8308039570     0.0626536630
Bq        -1.0354684873     2.9044519091     0.3532446672
Bq        -1.0201005620     2.8062546396    -0.0342100051
Bq        -1.0393104686     2.9290012265     0.4501083353
Bq        -1.0162585806     2.7817053222    -0.1310736732
Bq        -1.0431524499     2.9535505438     0.5469720034
Bq        -1.0124165993     2.7571560048    -0.2279373413
Bq        -1.0469944313     2.9780998612     0.6438356715
Bq        -1.0085746180     2.7326066875    -0.3248010094
Bq        -1.0277845246     2.8553532743     0.1595173311
Bq        -1.0306535517     2.9768424236     0.2318509697
Bq        -1.0229695891     2.9277437889     0.0381236335
Bq        -1.0344955331     3.0013917410     0.3287146378
Bq        -1.0191276077     2.9031944715    -0.0587400345
Bq        -1.0383375144     3.0259410584     0.4255783059
Bq        -1.0152856264     2.8786451541    -0.1556037026
Bq        -1.0421794957     3.0504903758     0.5224419740
Bq        -1.0114436451     2.8540958368    -0.2524673707
Bq        -1.0460214770     3.0750396931     0.6193056421
Bq        -1.0076016638     2.8295465194    -0.3493310388
Bq        -1.0268115704     2.9522931063     0.1349873016
Bq        -1.0296805975     3.0737822556     0.2073209403
Bq        -1.0219966348     3.0246836208     0.0135936041
Bq        -1.0335225788     3.0983315730     0.3041846084
Bq        -1.0181546535     3.0001343035    -0.0832700640
Bq        -1.0373645602     3.1228808903     0.4010482765
Bq        -1.0143126722     2.9755849861    -0.1801337321
Bq        -1.0412065415     3.1474302077     0.4979119446
Bq        -1.0104706909     2.9510356687    -0.2769974002
Bq        -1.0450485228     3.1719795251     0.5947756127
Bq        -1.0066287095     2.9264863513    -0.3738610682
Bq        -1.0258386162     3.0492329382     0.1104572722
Bq        -1.0287076433     3.1707220875     0.1827909109
Bq        -1.0210236806     3.1216234528    -0.0109364253
Bq        -1.0325496246     3.1952714049     0.2796545790
Bq        -1.0171816993     3.0970741354    -0.1078000934
Bq        -1.0363916059     3.2198207223     0.3765182471
Bq        -1.0133397180     3.0725248180    -0.2046637615
Bq        -1.0402335873     3.2443700397     0.4733819151
Bq        -1.0094977366     3.0479755006    -0.3015274296
Bq        -1.0440755686     3.2689193570     0.5702455832
Bq        -1.0056557553     3.0234261833    -0.3983910977
Bq        -1.0248656620     3.1461727701     0.0859272428
Bq        -1.0277346891     3.2676619195     0.1582608814
Bq        -1.0200507264     3.2185632847    -0.0354664547
Bq        -1.0315766704     3.2922112368     0.2551245495
Bq        -1.0162087451     3.1940139673    -0.1323301228
Bq        -1.0354186517     3.3167605542     0.3519882176
Bq        -1.0123667637     3.1694646500    -0.2291937909
Bq        -1.0392606330     3.3413098716     0.4488518857
Bq        -1.0085247824     3.1449153326    -0.3260574590
Bq        -1.0431026144     3.3658591890     0.5457155538
Bq        -1.0046828011     3.1203660152    -0.4229211271
Bq        -1.0238927077     3.2431126021     0.0613972134
Bq        -1.0267617348     3.3646017514     0.1337308520
Bq        -1.0190777722     3.3155031167    -0.0599964842
Bq        -1.0306037162     3.3891510688     0.2305945201
Bq        -1.0152357908     3.2909537993    -0.1568601523
Bq        -1.0344456975     3.4137003862     0.3274581882
Bq        -1.0113938095     3.2664044819    -0.2537238203
Bq        -1.0382876788     3.4382497035     0.4243218563
Bq        -1.0075518282     3.2418551645    -0.3505874884
Bq        -1.0421296602     3.4627990209     0.5211855244
Bq        -1.0037098469     3.2173058471    -0.4474511565
Bq        -1.0229197535     3.3400524340     0.0368671839
Bq        -1.0257887806     3.4615415833     0.1092008226
Bq        -1.0181048180     3.4124429486    -0.0845265136
Bq        -1.0296307619     3.4860909007     0.2060644907
Bq        -1.0142628366     3.3878936312    -0.1813901817
Bq        -1.0334727433     3.5106402181     0.3029281588
Bq        -1.0104208553     3.3633443138    -0.2782538498
Bq        -1.0373147246     3.5351895355     0.3997918269
Bq        -1.0065788740     3.3387949965    -0.3751175179
Bq        -1.0411567059     3.5597388528     0.4966554949
Bq        -1.0027368926     3.3142456791    -0.4719811860
Bq        -1.0219467993     3.4369922660     0.0123371545
Bq        -1.0248158264     3.5584814153     0.0846707932
Bq        -1.0171318637     3.5093827805    -0.1090565430
Bq        -1.0286578077     3.5830307327     0.1815344613
Bq        -1.0132898824     3.4848334632    -0.2059202111
Bq        -1.0324997890     3.6075800500     0.2783981293
Bq        -1.0094479011     3.4602841458    -0.3027838792
Bq        -1.0363417704     3.6321293674     0.3752617974
Bq        -1.0056059197     3.4357348284    -0.3996475473
Bq        -1.0401837517     3.6566786848     0.4721254655
Bq        -1.0017639384     3.4111855110    -0.4965112154
Bq        -1.0209738451     3.5339320979    -0.0121928749
Bq        -1.0238428722     3.6554212472     0.0601407637
Bq        -1.0161589095     3.6063226125    -0.1335865724
Bq        -1.0276848535     3.6799705646     0.1570044318
Bq        -1.0123169282     3.5817732951    -0.2304502405
Bq        -1.0315268348     3.7045198820     0.2538680999
Bq        -1.0084749468     3.5572239777    -0.3273139086
Bq        -1.0353688161     3.7290691993     0.3507317680
Bq        -1.0046329655     3.5326746603    -0.4241775767
Bq        -1.0392107975     3.7536185167     0.4475954361
Bq        -1.0007909842     3.5081253430    -0.5210412448
Bq        -1.0200008908     3.6308719298    -0.0367229044
Bq        -1.0228699179     3.7523610792     0.0356107343
Bq        -1.0151859553     3.7032624444    -0.1581166019
Bq        -1.0267118993     3.7769103965     0.1324744024
Bq        -1.0113439739     3.6787131270    -0.2549802700
Bq        -1.0305538806     3.8014597139     0.2293380705
Bq        -1.0075019926     3.6541638097    -0.3518439381
Bq        -1.0343958619     3.8260090313     0.3262017386
Bq        -1.0036600113     3.6296144923    -0.4487076061
Bq        -1.0382378433     3.8505583487     0.4230654067
Bq        -0.9998180300     3.6050651749    -0.5455712742
Bq        -1.0190279366     3.7278117618    -0.0612529338
Bq        -1.0218969637     3.8493009111     0.0110807049
Bq        -1.0142130011     3.8002022763    -0.1826466313
Bq        -1.0257389450     3.8738502285     0.1079443730
Bq        -1.0103710197     3.7756529590    -0.2795102994
Bq        -1.0295809264     3.8983995458     0.2048080411
Bq        -1.0065290384     3.7511036416    -0.3763739675
Bq        -1.0334229077     3.9229488632     0.3016717092
Bq        -1.0026870571     3.7265543242    -0.4732376356
Bq        -1.0372648890     3.9474981806     0.3985353772
Bq        -0.9988450757     3.7020050068    -0.5701013037
Bq        -1.0180549824     3.8247515937    -0.0857829632
Bq        -1.0209240095     3.9462407430    -0.0134493245
Bq        -1.0132400468     3.8971421083    -0.2071766607
Bq        -1.0247659908     3.9707900604     0.0834143435
Bq        -1.0093980655     3.8725927909    -0.3040403288
Bq        -1.0286079721     3.9953393778     0.1802780116
Bq        -1.0055560842     3.8480434735    -0.4009039969
Bq        -1.0324499535     4.0198886952     0.2771416797
Bq        -1.0017141028     3.8234941562    -0.4977676650
Bq        -1.0362919348     4.0444380125     0.3740053478
Bq        -0.9978721215     3.7989448388    -0.5946313331
Bq        -1.0170820282     3.9216914257    -0.1103129926
Bq        -1.0199510553     4.0431805750    -0.0379793540
Bq        -1.0122670926     3.9940819402    -0.2317066902
Bq        -1.0237930366     4.0677298924     0.0588843141
Bq        -1.0084251113     3.9695326228    -0.3285703582
Bq        -1.0276350179     4.0922792097     0.1557479822
Bq        -1.0045831299     3.9449833055    -0.4254340263
Bq        -1.0314769993     4.1168285271     0.2526116503
Bq        -1.0007411486     3.9204339881    -0.5222976944
Bq        -1.0353189806     4.1413778445     0.3494753184
Bq        -0.9968991673     3.8958846707    -0.6191613625
Bq        -1.0161090739     4.0186312576    -0.1348430221
Bq        -1.0189781010     4.1401204069    -0.0625093834
Bq        -1.0112941384     4.0910217722    -0.2562367196
Bq        -1.0228200824     4.1646697243     0.0343542847
Bq        -1.0074521571     4.0664724548    -0.3531003877
Bq        -1.0266620637     4.1892190417     0.1312179528
Bq        -1.0036101757     4.0419231374    -0.4499640558
Bq        -1.0305040450     4.2137683590     0.2280816209
Bq        -0.9997681944     4.0173738200    -0.5468277239
Bq        -1.0343460264     4.2383176764     0.3249452890
Bq        -0.9959262131     3.9928245027    -0.6436913919
Bq        -1.0151361197     4.1155710895    -0.1593730515
Bq        -1.0180051468     4.2370602389    -0.0870394128
Bq        -1.0103211842     4.1879616041    -0.2807667490

1
2
3
4
5
6
7
8
9
10
11
12
13
14
15
16
17
18
19
20
21
22
23
24
25
26
27
28
29
30
31
32
33
34
35
36
37
38
39
40
41
42
43
44
45
46
47
48
49
50
51
52
53
54
55
56
57
58
59
60
61
62
63
64
65
66
67
68
69
70
71
72
73
74
75
76
77
78
79
80
81
82
83
84
85
86
87
88
89
90
91
92
93
94
95
96
97
98
99
100
101
102
103
104
105
106
107
108
109
110
111
112
113
114
115
116
117
118
119
120
121
122
123
124
125
126
127
128
129
130
131
132
133
134
135
136
137
138
139
140
141
142
143
144
145
146
147
148
149
150
151
152
153
154
155
156
157
158
159
160
161
162
163
164
165
166
167
168
169
170
171
172
173
174
175
176
177
178
179
180
181
182
183
184
185
186
187
188
189
190
191
192
193
194
195
196
197
198
199
200
201
202
203
204
205
206
207
208
209
210
211
212
213
214
215
216
217
218
219
220
221
222
223
224
225
226
227
228
229
230
231
232
233
234
235
236

