%nproc=8
%mem=1000MB
# rb3lyp/6-311+g** NMR geom=connectivity

Title

0 1
C    -4.0500558   -0.5771862    0.8136712
H    -5.0263804   -1.0082727    1.0024760
C    -3.9381552    0.6617804    0.2400876
H    -4.8252424    1.2338890   -0.0111295
C    -2.6768410    1.2433246    0.0057578
C    -1.4974121    0.5051527    0.2848253
C    -1.6508332   -0.7338728    0.9404026
H    -0.7713646   -1.2730967    1.2633753
C    -2.8898548   -1.2624035    1.1994307
H    -2.9683706   -2.2124563    1.7152676
C    -2.5773185    2.5963696   -0.4192930
H    -3.4870728    3.1412239   -0.6474055
C    -1.3741895    3.2147896   -0.4364030
H    -1.2997315    4.2742019   -0.6578144
C    -0.1719488    2.4994090   -0.1734588
C    -0.2043917    1.1018437    0.0192689
C     1.0513491    3.2042560   -0.0676222
H     1.0427344    4.2819499   -0.1896997
C     2.1942091    2.5487446    0.2579577
H     3.1168527    3.0912848    0.4334727
C     2.2216473    1.1336562    0.2934990
C     1.0486931    0.3945528    0.0302412
C     3.4483363    0.4614633    0.5573939
H     4.3095794    1.0606054    0.8334846
C     3.5427346   -0.8855926    0.4749463
H     4.4731467   -1.3939704    0.7038822
C     2.4490052   -1.6474447   -0.0196319
C     1.2150704   -1.0057258   -0.3013573
C     0.2531113   -1.7434440   -1.0216591
H    -0.6541356   -1.2535051   -1.3462847
C     0.4494193   -3.0628597   -1.3413779
H    -0.3083162   -3.5944309   -1.9054060
C     1.6251726   -3.7207967   -0.9552541
H     1.7670048   -4.7687404   -1.1927019
C     2.6109872   -3.0144177   -0.3183050
H     3.5525612   -3.4902813   -0.0646367
Bq         4.5485035620    -1.5740230597     1.5165422369
Bq         4.7539344766    -1.4602017875     0.7517920441
Bq         4.5228246977    -1.5882507187     1.6121360110
Bq         4.7796133409    -1.4459741284     0.6561982700
Bq         4.6512190193    -1.5171124236     1.1341671405
Bq         4.6218491045    -1.4323573886     1.2435014541
Bq         4.6732068331    -1.4039020705     1.0523139060
Bq         4.5961702401    -1.4465850476     1.3390952282
Bq         4.6988856974    -1.3896744115     0.9567201319
Bq         4.5704913758    -1.4608127066     1.4346890023
Bq         4.7245645617    -1.3754467524     0.8611263578
Bq         4.5448125115    -1.4750403656     1.5302827764
Bq         4.7502434261    -1.3612190934     0.7655325837
Bq         4.5191336472    -1.4892680247     1.6258765505
Bq         4.7759222904    -1.3469914344     0.6699388096
Bq         4.6475279688    -1.4181297295     1.1479076801
Bq         4.6181580539    -1.3333746945     1.2572419937
Bq         4.6695157826    -1.3049193765     1.0660544455
Bq         4.5924791896    -1.3476023536     1.3528357678
Bq         4.6951946469    -1.2906917174     0.9704606714
Bq         4.5668003253    -1.3618300126     1.4484295419
Bq         4.7208735112    -1.2764640584     0.8748668973
Bq         4.5411214609    -1.3760576716     1.5440233160
Bq         4.7465523755    -1.2622363994     0.7792731232
Bq         4.5154425966    -1.3902853306     1.6396170901
Bq         4.7722312399    -1.2480087404     0.6836793491
Bq         4.6438369182    -1.3191470355     1.1616482196
Bq         4.6144670034    -1.2343920005     1.2709825333
Bq         4.6658247320    -1.2059366824     1.0797949851
Bq         4.5887881391    -1.2486196595     1.3665763074
Bq         4.6915035963    -1.1917090234     0.9842012110
Bq         4.5631092747    -1.2628473185     1.4621700815
Bq         4.7171824607    -1.1774813644     0.8886074369
Bq         4.5374304104    -1.2770749776     1.5577638555
Bq         4.7428613250    -1.1632537054     0.7930136628
Bq         4.5117515461    -1.2913026366     1.6533576296
Bq         4.7685401893    -1.1490260463     0.6974198887
Bq         4.6401458677    -1.2201643415     1.1753887592
Bq         4.6107759528    -1.1354093065     1.2847230728
Bq         4.6621336815    -1.1069539884     1.0935355246
Bq         4.5850970885    -1.1496369655     1.3803168469
Bq         4.6878125458    -1.0927263294     0.9979417505
Bq         4.5594182242    -1.1638646245     1.4759106210
Bq         4.7134914101    -1.0784986703     0.9023479764
Bq         4.5337393599    -1.1780922835     1.5715043951
Bq         4.7391702745    -1.0642710113     0.8067542023
Bq         4.5080604956    -1.1923199426     1.6670981692
Bq         4.7648491388    -1.0500433523     0.7111604283
Bq         4.6364548172    -1.1211816474     1.1891292987
Bq         4.6070849023    -1.0364266124     1.2984636124
Bq         4.6584426310    -1.0079712944     1.1072760642
Bq         4.5814060380    -1.0506542714     1.3940573865
Bq         4.6841214953    -0.9937436353     1.0116822901
Bq         4.5557271737    -1.0648819305     1.4896511606
Bq         4.7098003596    -0.9795159763     0.9160885160
Bq         4.5300483093    -1.0791095895     1.5852449347
Bq         4.7354792239    -0.9652883173     0.8204947419
Bq         4.5043694450    -1.0933372485     1.6808387088
Bq         4.7611580882    -0.9510606583     0.7249009678
Bq         4.6327637666    -1.0221989534     1.2028698383
Bq         4.6033938518    -0.9374439184     1.3122041519
Bq         4.6547515804    -0.9089886003     1.1210166038
Bq         4.5777149875    -0.9516715774     1.4077979260
Bq         4.6804304447    -0.8947609413     1.0254228297
Bq         4.5520361231    -0.9658992364     1.5033917001
Bq         4.7061093091    -0.8805332823     0.9298290556
Bq         4.5263572588    -0.9801268955     1.5989854742
Bq         4.7317881734    -0.8663056232     0.8342352815
Bq         4.5006783945    -0.9943545545     1.6945792483
Bq         4.7574670377    -0.8520779642     0.7386415074
Bq         4.6290727161    -0.9232162594     1.2166103778
Bq         4.5997028012    -0.8384612243     1.3259446915
Bq         4.6510605299    -0.8100059063     1.1347571433
Bq         4.5740239369    -0.8526888834     1.4215384656
Bq         4.6767393942    -0.7957782473     1.0391633692
Bq         4.5483450726    -0.8669165424     1.5171322397
Bq         4.7024182585    -0.7815505882     0.9435695951
Bq         4.5226662083    -0.8811442014     1.6127260138
Bq         4.7280971229    -0.7673229292     0.8479758210
Bq         4.4969873439    -0.8953718605     1.7083197879
Bq         4.7537759872    -0.7530952702     0.7523820469
Bq         4.6253816656    -0.8242335653     1.2303509174
Bq         4.5960117507    -0.7394785303     1.3396852311
Bq         4.6473694793    -0.7110232123     1.1484976829
Bq         4.5703328864    -0.7537061893     1.4352790052
Bq         4.6730483437    -0.6967955532     1.0529039088
Bq         4.5446540221    -0.7679338484     1.5308727792
Bq         4.6987272080    -0.6825678942     0.9573101347
Bq         4.5189751577    -0.7821615074     1.6264665533
Bq         4.7244060723    -0.6683402352     0.8617163606
Bq         4.4932962934    -0.7963891664     1.7220603274
Bq         4.7500849366    -0.6541125761     0.7661225865
Bq         4.6216906150    -0.7252508713     1.2440914570
Bq         4.5923207002    -0.6404958363     1.3534257706
Bq         4.6436784288    -0.6120405182     1.1622382224
Bq         4.5666418358    -0.6547234953     1.4490195447
Bq         4.6693572931    -0.5978128592     1.0666444483
Bq         4.5409629715    -0.6689511543     1.5446133188
Bq         4.6950361575    -0.5835852002     0.9710506742
Bq         4.5152841072    -0.6831788134     1.6402070929
Bq         4.7207150218    -0.5693575411     0.8754569001
Bq         4.4896052429    -0.6974064724     1.7358008670
Bq         4.7463938861    -0.5551298821     0.7798631260
Bq         4.6179995645    -0.6262681772     1.2578319965
Bq         4.5886296496    -0.5415131422     1.3671663102
Bq         4.6399873783    -0.5130578242     1.1759787620
Bq         4.5629507853    -0.5557408013     1.4627600843
Bq         4.6656662426    -0.4988301652     1.0803849879
Bq         4.5372719210    -0.5699684603     1.5583538584
Bq         4.6913451069    -0.4846025061     0.9847912138
Bq         4.5115930567    -0.5841961193     1.6539476325
Bq         4.7170239712    -0.4703748471     0.8891974397
Bq         4.4859141923    -0.5984237784     1.7495414066
Bq         4.7427028356    -0.4561471881     0.7936036656
Bq         4.6143085140    -0.5272854832     1.2715725361
Bq         4.5849385991    -0.4425304482     1.3809068497
Bq         4.6362963277    -0.4140751301     1.1897193015
Bq         4.5592597348    -0.4567581072     1.4765006238
Bq         4.6619751921    -0.3998474711     1.0941255274
Bq         4.5335808705    -0.4709857663     1.5720943979
Bq         4.6876540564    -0.3856198121     0.9985317534
Bq         4.5079020061    -0.4852134253     1.6676881720
Bq         4.7133329207    -0.3713921531     0.9029379793
Bq         4.4822231418    -0.4994410843     1.7632819461
Bq         4.7390117850    -0.3571644940     0.8073442052
Bq         4.6106174634    -0.4283027892     1.2853130756
Bq         4.5812475486    -0.3435477542     1.3946473893
Bq         4.6326052772    -0.3150924361     1.2034598411
Bq         4.5555686842    -0.3577754132     1.4902411634
Bq         4.6582841415    -0.3008647771     1.1078660670
Bq         4.5298898199    -0.3720030722     1.5858349375
Bq         4.6839630059    -0.2866371181     1.0122722929
Bq         4.5042109556    -0.3862307313     1.6814287116
Bq         4.7096418702    -0.2724094590     0.9166785188
Bq         4.4785320913    -0.4004583903     1.7770224857
Bq         4.7353207345    -0.2581818000     0.8210847447
Bq         4.6069264129    -0.3293200951     1.2990536152
Bq         4.5775564980    -0.2445650601     1.4083879289
Bq         4.6289142267    -0.2161097421     1.2172003807
Bq         4.5518776337    -0.2587927192     1.5039817029
Bq         4.6545930910    -0.2018820830     1.1216066066
Bq         4.5261987694    -0.2730203782     1.5995754770
Bq         4.6802719553    -0.1876544240     1.0260128325
Bq         4.5005199051    -0.2872480372     1.6951692511
Bq         4.7059508196    -0.1734267650     0.9304190584
Bq         4.4748410407    -0.3014756962     1.7907630252
Bq         4.7316296840    -0.1591991060     0.8348252843
Bq         4.6032353623    -0.2303374011     1.3127941548
Bq         4.5738654475    -0.1455823661     1.4221284684
Bq         4.6252231761    -0.1171270480     1.2309409202
Bq         4.5481865832    -0.1598100251     1.5177222425
Bq         4.6509020405    -0.1028993890     1.1353471461
Bq         4.5225077188    -0.1740376842     1.6133160166
Bq         4.6765809048    -0.0886717300     1.0397533720
Bq         4.4968288545    -0.1882653432     1.7089097907
Bq         4.7022597691    -0.0744440710     0.9441595979
Bq         4.4711499902    -0.2024930022     1.8045035648
Bq         4.7279386334    -0.0602164119     0.8485658238
Bq         4.5995443118    -0.1313547071     1.3265346943
Bq         4.5701743970    -0.0465996721     1.4358690080
Bq         4.6215321256    -0.0181443540     1.2446814598
Bq         4.5444955326    -0.0608273311     1.5314627821
Bq         4.6472109899    -0.0039166950     1.1490876857
Bq         4.5188166683    -0.0750549901     1.6270565562
Bq         4.6728898542     0.0103109641     1.0534939116
Bq         4.4931378040    -0.0892826491     1.7226503303
Bq         4.6985687186     0.0245386231     0.9579001375
Bq         4.4674589397    -0.1035103082     1.8182441043
Bq         4.7242475829     0.0387662821     0.8623063634
Bq         4.5958532613    -0.0323720130     1.3402752339
Bq         4.5664833464     0.0523830220     1.4496095475
Bq         4.6178410751     0.0808383400     1.2584219993
Bq         4.5408044821     0.0381553629     1.5452033216
Bq         4.6435199394     0.0950659991     1.1628282252
Bq         4.5151256178     0.0239277039     1.6407970957
Bq         4.6691988037     0.1092936581     1.0672344511
Bq         4.4894467535     0.0097000449     1.7363908698
Bq         4.6948776680     0.1235213171     0.9716406771
Bq         4.4637678891    -0.0045276141     1.8319846439
Bq         4.7205565324     0.1377489761     0.8760469030
Bq         4.5921622107     0.0666106810     1.3540157734
Bq         4.5627922959     0.1513657160     1.4633500871
Bq         4.6141500245     0.1798210341     1.2721625389
Bq         4.5371134316     0.1371380570     1.5589438612
Bq         4.6398288889     0.1940486931     1.1765687648
Bq         4.5114345672     0.1229103980     1.6545376353
Bq         4.6655077532     0.2082763521     1.0809749907
Bq         4.4857557029     0.1086827389     1.7501314094
Bq         4.6911866175     0.2225040112     0.9853812166
Bq         4.4600768386     0.0944550799     1.8457251835
Bq         4.7168654818     0.2367316702     0.8897874425
Bq         4.5884711602     0.1655933750     1.3677563130
Bq         4.5591012453     0.2503484100     1.4770906266
Bq         4.6104589740     0.2788037281     1.2859030785
Bq         4.5334223810     0.2361207510     1.5726844007
Bq         4.6361378383     0.2930313871     1.1903093044
Bq         4.5077435167     0.2218930920     1.6682781748
Bq         4.6618167026     0.3072590462     1.0947155303
Bq         4.4820646524     0.2076654330     1.7638719489
Bq         4.6874955670     0.3214867052     0.9991217562

1
2
3
4
5
6
7
8
9
10
11
12
13
14
15
16
17
18
19
20
21
22
23
24
25
26
27
28
29
30
31
32
33
34
35
36
37
38
39
40
41
42
43
44
45
46
47
48
49
50
51
52
53
54
55
56
57
58
59
60
61
62
63
64
65
66
67
68
69
70
71
72
73
74
75
76
77
78
79
80
81
82
83
84
85
86
87
88
89
90
91
92
93
94
95
96
97
98
99
100
101
102
103
104
105
106
107
108
109
110
111
112
113
114
115
116
117
118
119
120
121
122
123
124
125
126
127
128
129
130
131
132
133
134
135
136
137
138
139
140
141
142
143
144
145
146
147
148
149
150
151
152
153
154
155
156
157
158
159
160
161
162
163
164
165
166
167
168
169
170
171
172
173
174
175
176
177
178
179
180
181
182
183
184
185
186
187
188
189
190
191
192
193
194
195
196
197
198
199
200
201
202
203
204
205
206
207
208
209
210
211
212
213
214
215
216
217
218
219
220
221
222
223
224
225
226
227
228
229
230
231
232
233
234
235
236

