%nproc=8
%mem=1000MB
# rb3lyp/6-311+g** NMR geom=connectivity

Title

0 1
C    -4.0500558   -0.5771862    0.8136712
H    -5.0263804   -1.0082727    1.0024760
C    -3.9381552    0.6617804    0.2400876
H    -4.8252424    1.2338890   -0.0111295
C    -2.6768410    1.2433246    0.0057578
C    -1.4974121    0.5051527    0.2848253
C    -1.6508332   -0.7338728    0.9404026
H    -0.7713646   -1.2730967    1.2633753
C    -2.8898548   -1.2624035    1.1994307
H    -2.9683706   -2.2124563    1.7152676
C    -2.5773185    2.5963696   -0.4192930
H    -3.4870728    3.1412239   -0.6474055
C    -1.3741895    3.2147896   -0.4364030
H    -1.2997315    4.2742019   -0.6578144
C    -0.1719488    2.4994090   -0.1734588
C    -0.2043917    1.1018437    0.0192689
C     1.0513491    3.2042560   -0.0676222
H     1.0427344    4.2819499   -0.1896997
C     2.1942091    2.5487446    0.2579577
H     3.1168527    3.0912848    0.4334727
C     2.2216473    1.1336562    0.2934990
C     1.0486931    0.3945528    0.0302412
C     3.4483363    0.4614633    0.5573939
H     4.3095794    1.0606054    0.8334846
C     3.5427346   -0.8855926    0.4749463
H     4.4731467   -1.3939704    0.7038822
C     2.4490052   -1.6474447   -0.0196319
C     1.2150704   -1.0057258   -0.3013573
C     0.2531113   -1.7434440   -1.0216591
H    -0.6541356   -1.2535051   -1.3462847
C     0.4494193   -3.0628597   -1.3413779
H    -0.3083162   -3.5944309   -1.9054060
C     1.6251726   -3.7207967   -0.9552541
H     1.7670048   -4.7687404   -1.1927019
C     2.6109872   -3.0144177   -0.3183050
H     3.5525612   -3.4902813   -0.0646367
Bq         2.3603018405    -4.1008551222    -0.7649689572
Bq         2.1609930216    -4.2339333777    -0.3261453337
Bq         2.1101247844    -4.1641560461    -0.2141473585
Bq         2.1898483120    -4.1109247439    -0.3896768079
Bq         2.0702630207    -4.1907716972    -0.1263826338
Bq         2.2297100758    -4.0843090928    -0.4774415326
Bq         2.0304012569    -4.2173873483    -0.0386179091
Bq         2.2695718396    -4.0576934417    -0.5652062573
Bq         1.9905394931    -4.2440029994     0.0491468157
Bq         2.3094336034    -4.0310777905    -0.6529709820
Bq         1.9506777293    -4.2706186505     0.1369115404
Bq         2.3492953672    -4.0044621394    -0.7407357068
Bq         2.1499865482    -4.1375403950    -0.3019120832
Bq         2.0991183111    -4.0677630634    -0.1899141080
Bq         2.1788418386    -4.0145317612    -0.3654435575
Bq         2.0592565473    -4.0943787145    -0.1021493833
Bq         2.2187036024    -3.9879161100    -0.4532082822
Bq         2.0193947835    -4.1209943656    -0.0143846586
Bq         2.2585653662    -3.9613004589    -0.5409730069
Bq         1.9795330197    -4.1476100167     0.0733800661
Bq         2.2984271300    -3.9346848078    -0.6287377316
Bq         1.9396712559    -4.1742256678     0.1611447908
Bq         2.3382888938    -3.9080691567    -0.7165024563
Bq         2.1389800749    -4.0411474123    -0.2776788327
Bq         2.0881118377    -3.9713700807    -0.1656808576
Bq         2.1678353653    -3.9181387784    -0.3412103070
Bq         2.0482500739    -3.9979857318    -0.0779161329
Bq         2.2076971291    -3.8915231273    -0.4289750317
Bq         2.0083883101    -4.0246013829     0.0098485919
Bq         2.2475588928    -3.8649074762    -0.5167397564
Bq         1.9685265463    -4.0512170340     0.0976133166
Bq         2.2874206566    -3.8382918251    -0.6045044811
Bq         1.9286647825    -4.0778326851     0.1853780413
Bq         2.3272824204    -3.8116761740    -0.6922692058
Bq         2.1279736015    -3.9447544296    -0.2534455823
Bq         2.0771053643    -3.8749770979    -0.1414476071
Bq         2.1568288919    -3.8217457957    -0.3169770565
Bq         2.0372436005    -3.9015927491    -0.0536828824
Bq         2.1966906557    -3.7951301446    -0.4047417812
Bq         1.9973818368    -3.9282084002     0.0340818423
Bq         2.2365524195    -3.7685144935    -0.4925065060
Bq         1.9575200730    -3.9548240513     0.1218465670
Bq         2.2764141833    -3.7418988424    -0.5802712307
Bq         1.9176583092    -3.9814397024     0.2096112917
Bq         2.3162759471    -3.7152831913    -0.6680359554
Bq         2.1169671281    -3.8483614468    -0.2292123318
Bq         2.0660988910    -3.7785841152    -0.1172143567
Bq         2.1458224185    -3.7253528130    -0.2927438061
Bq         2.0262371272    -3.8051997663    -0.0294496319
Bq         2.1856841823    -3.6987371619    -0.3805085308
Bq         1.9863753634    -3.8318154174     0.0583150928
Bq         2.2255459461    -3.6721215108    -0.4682732555
Bq         1.9465135996    -3.8584310686     0.1460798175
Bq         2.2654077099    -3.6455058597    -0.5560379802
Bq         1.9066518358    -3.8850467197     0.2338445422
Bq         2.3052694737    -3.6188902086    -0.6438027049
Bq         2.1059606547    -3.7519684641    -0.2049790814
Bq         2.0550924176    -3.6821911325    -0.0929811062
Bq         2.1348159452    -3.6289598303    -0.2685105556
Bq         2.0152306538    -3.7088067836    -0.0052163815
Bq         2.1746777089    -3.6023441792    -0.3562752803
Bq         1.9753688900    -3.7354224347     0.0825483432
Bq         2.2145394727    -3.5757285281    -0.4440400050
Bq         1.9355071262    -3.7620380858     0.1703130679
Bq         2.2544012365    -3.5491128770    -0.5318047298
Bq         1.8956453624    -3.7886537369     0.2580777927
Bq         2.2942630003    -3.5224972259    -0.6195694545
Bq         2.0949541814    -3.6555754814    -0.1807458309
Bq         2.0440859442    -3.5857981498    -0.0687478557
Bq         2.1238094718    -3.5325668476    -0.2442773052
Bq         2.0042241804    -3.6124138009     0.0190168690
Bq         2.1636712356    -3.5059511965    -0.3320420299
Bq         1.9643624166    -3.6390294520     0.1067815937
Bq         2.2035329994    -3.4793355454    -0.4198067546
Bq         1.9245006528    -3.6656451031     0.1945463184
Bq         2.2433947631    -3.4527198943    -0.5075714793
Bq         1.8846388891    -3.6922607542     0.2823110431
Bq         2.2832565269    -3.4261042432    -0.5953362040
Bq         2.0839477080    -3.5591824987    -0.1565125804
Bq         2.0330794708    -3.4894051671    -0.0445146053
Bq         2.1128029984    -3.4361738649    -0.2200440547
Bq         1.9932177070    -3.5160208182     0.0432501194
Bq         2.1526647622    -3.4095582138    -0.3078087794
Bq         1.9533559433    -3.5426364693     0.1310148441
Bq         2.1925265260    -3.3829425627    -0.3955735041
Bq         1.9134941795    -3.5692521204     0.2187795689
Bq         2.2323882898    -3.3563269116    -0.4833382288
Bq         1.8736324157    -3.5958677715     0.3065442936
Bq         2.2722500536    -3.3297112605    -0.5711029536
Bq         2.0729412346    -3.4627895160    -0.1322793300
Bq         2.0220729975    -3.3930121844    -0.0202813548
Bq         2.1017965250    -3.3397808822    -0.1958108042
Bq         1.9822112337    -3.4196278355     0.0674833699
Bq         2.1416582888    -3.3131652311    -0.2835755290
Bq         1.9423494699    -3.4462434866     0.1552480946
Bq         2.1815200526    -3.2865495800    -0.3713402537
Bq         1.9024877061    -3.4728591377     0.2430128193
Bq         2.2213818164    -3.2599339288    -0.4591049784
Bq         1.8626259423    -3.4994747888     0.3307775440
Bq         2.2612435802    -3.2333182777    -0.5468697031
Bq         2.0619347613    -3.3663965333    -0.1080460795
Bq         2.0110665241    -3.2966192017     0.0039518956
Bq         2.0907900517    -3.2433878995    -0.1715775538
Bq         1.9712047603    -3.3232348528     0.0917166204
Bq         2.1306518155    -3.2167722484    -0.2593422785
Bq         1.9313429965    -3.3498505039     0.1794813451
Bq         2.1705135792    -3.1901565972    -0.3471070032
Bq         1.8914812327    -3.3764661550     0.2672460698
Bq         2.2103753430    -3.1635409461    -0.4348717279
Bq         1.8516194689    -3.4030818061     0.3550107945
Bq         2.2502371068    -3.1369252950    -0.5226364526
Bq         2.0509282879    -3.2700035506    -0.0838128291
Bq         2.0000600507    -3.2002262190     0.0281851461
Bq         2.0797835783    -3.1469949167    -0.1473443033
Bq         1.9601982869    -3.2268418701     0.1159498708
Bq         2.1196453421    -3.1203792656    -0.2351090280
Bq         1.9203365231    -3.2534575212     0.2037145955
Bq         2.1595071059    -3.0937636145    -0.3228737528
Bq         1.8804747594    -3.2800731723     0.2914793202
Bq         2.1993688697    -3.0671479634    -0.4106384775
Bq         1.8406129956    -3.3066888234     0.3792440449
Bq         2.2392306334    -3.0405323123    -0.4984032022
Bq         2.0399218145    -3.1736105679    -0.0595795786
Bq         1.9890535773    -3.1038332362     0.0524183966
Bq         2.0687771049    -3.0506019340    -0.1231110529
Bq         1.9491918136    -3.1304488874     0.1401831213
Bq         2.1086388687    -3.0239862829    -0.2108757776
Bq         1.9093300498    -3.1570645385     0.2279478460
Bq         2.1485006325    -2.9973706318    -0.2986405023
Bq         1.8694682860    -3.1836801896     0.3157125707
Bq         2.1883623963    -2.9707549807    -0.3864052270
Bq         1.8296065222    -3.2102958407     0.4034772954
Bq         2.2282241601    -2.9441393296    -0.4741699517
Bq         2.0289153411    -3.0772175851    -0.0353463282
Bq         1.9780471040    -3.0074402535     0.0766516470
Bq         2.0577706316    -2.9542089513    -0.0988778024
Bq         1.9381853402    -3.0340559046     0.1644163717
Bq         2.0976323953    -2.9275933002    -0.1866425271
Bq         1.8983235764    -3.0606715558     0.2521810964
Bq         2.1374941591    -2.9009776491    -0.2744072518
Bq         1.8584618126    -3.0872872069     0.3399458212
Bq         2.1773559229    -2.8743619980    -0.3621719766
Bq         1.8186000488    -3.1139028580     0.4277105459
Bq         2.2172176867    -2.8477463469    -0.4499367013
Bq         2.0179088678    -2.9808246024    -0.0111130777
Bq         1.9670406306    -2.9110472708     0.1008848975
Bq         2.0467641582    -2.8578159686    -0.0746445520
Bq         1.9271788668    -2.9376629219     0.1886496222
Bq         2.0866259220    -2.8312003175    -0.1624092767
Bq         1.8873171030    -2.9642785730     0.2764143469
Bq         2.1264876858    -2.8045846664    -0.2501740014
Bq         1.8474553392    -2.9908942241     0.3641790716
Bq         2.1663494495    -2.7779690153    -0.3379387261
Bq         1.8075935755    -3.0175098753     0.4519437963
Bq         2.2062112133    -2.7513533642    -0.4257034508
Bq         2.0069023944    -2.8844316197     0.0131201728
Bq         1.9560341572    -2.8146542881     0.1251181479
Bq         2.0357576848    -2.7614229859    -0.0504113015
Bq         1.9161723934    -2.8412699392     0.2128828726
Bq         2.0756194486    -2.7348073348    -0.1381760262
Bq         1.8763106297    -2.8678855903     0.3006475974
Bq         2.1154812124    -2.7081916837    -0.2259407509
Bq         1.8364488659    -2.8945012414     0.3884123221
Bq         2.1553429762    -2.6815760326    -0.3137054756
Bq         1.7965871021    -2.9211168925     0.4761770468
Bq         2.1952047400    -2.6549603815    -0.4014702003
Bq         1.9958959210    -2.7880386370     0.0373534232
Bq         1.9450276839    -2.7182613054     0.1493513984
Bq         2.0247512114    -2.6650300032    -0.0261780510
Bq         1.9051659201    -2.7448769565     0.2371161231
Bq         2.0646129752    -2.6384143521    -0.1139427758
Bq         1.8653041563    -2.7714926076     0.3248808478
Bq         2.1044747390    -2.6117987010    -0.2017075005
Bq         1.8254423925    -2.7981082587     0.4126455725
Bq         2.1443365028    -2.5851830499    -0.2894722252
Bq         1.7855806287    -2.8247239098     0.5004102972
Bq         2.1841982666    -2.5585673988    -0.3772369499
Bq         1.9848894476    -2.6916456543     0.0615866737
Bq         1.9340212105    -2.6218683227     0.1735846488
Bq         2.0137447381    -2.5686370205    -0.0019448006
Bq         1.8941594467    -2.6484839738     0.2613493736
Bq         2.0536065019    -2.5420213694    -0.0897095253
Bq         1.8542976829    -2.6750996249     0.3491140983
Bq         2.0934682656    -2.5154057183    -0.1774742500
Bq         1.8144359191    -2.7017152760     0.4368788230
Bq         2.1333300294    -2.4887900672    -0.2652389747
Bq         1.7745741553    -2.7283309271     0.5246435477
Bq         2.1731917932    -2.4621744160    -0.3530036994
Bq         1.9738829743    -2.5952526716     0.0858199241
Bq         1.9230147371    -2.5254753400     0.1978178993
Bq         2.0027382647    -2.4722440378     0.0222884499
Bq         1.8831529733    -2.5520909911     0.2855826240
Bq         2.0426000285    -2.4456283867    -0.0654762748
Bq         1.8432912095    -2.5787066422     0.3733473487
Bq         2.0824617923    -2.4190127355    -0.1532409995
Bq         1.8034294458    -2.6053222933     0.4611120734
Bq         2.1223235561    -2.3923970844    -0.2410057243
Bq         1.7635676820    -2.6319379444     0.5488767982
Bq         2.1621853198    -2.3657814333    -0.3287704490
Bq         1.9628765009    -2.4988596889     0.1100531746

1
2
3
4
5
6
7
8
9
10
11
12
13
14
15
16
17
18
19
20
21
22
23
24
25
26
27
28
29
30
31
32
33
34
35
36
37
38
39
40
41
42
43
44
45
46
47
48
49
50
51
52
53
54
55
56
57
58
59
60
61
62
63
64
65
66
67
68
69
70
71
72
73
74
75
76
77
78
79
80
81
82
83
84
85
86
87
88
89
90
91
92
93
94
95
96
97
98
99
100
101
102
103
104
105
106
107
108
109
110
111
112
113
114
115
116
117
118
119
120
121
122
123
124
125
126
127
128
129
130
131
132
133
134
135
136
137
138
139
140
141
142
143
144
145
146
147
148
149
150
151
152
153
154
155
156
157
158
159
160
161
162
163
164
165
166
167
168
169
170
171
172
173
174
175
176
177
178
179
180
181
182
183
184
185
186
187
188
189
190
191
192
193
194
195
196
197
198
199
200
201
202
203
204
205
206
207
208
209
210
211
212
213
214
215
216
217
218
219
220
221
222
223
224
225
226
227
228
229
230
231
232
233
234
235
236

