%nproc=8
%mem=1000MB
# rb3lyp/6-311+g** NMR geom=connectivity

Title

0 1
C    -4.0500558   -0.5771862    0.8136712
H    -5.0263804   -1.0082727    1.0024760
C    -3.9381552    0.6617804    0.2400876
H    -4.8252424    1.2338890   -0.0111295
C    -2.6768410    1.2433246    0.0057578
C    -1.4974121    0.5051527    0.2848253
C    -1.6508332   -0.7338728    0.9404026
H    -0.7713646   -1.2730967    1.2633753
C    -2.8898548   -1.2624035    1.1994307
H    -2.9683706   -2.2124563    1.7152676
C    -2.5773185    2.5963696   -0.4192930
H    -3.4870728    3.1412239   -0.6474055
C    -1.3741895    3.2147896   -0.4364030
H    -1.2997315    4.2742019   -0.6578144
C    -0.1719488    2.4994090   -0.1734588
C    -0.2043917    1.1018437    0.0192689
C     1.0513491    3.2042560   -0.0676222
H     1.0427344    4.2819499   -0.1896997
C     2.1942091    2.5487446    0.2579577
H     3.1168527    3.0912848    0.4334727
C     2.2216473    1.1336562    0.2934990
C     1.0486931    0.3945528    0.0302412
C     3.4483363    0.4614633    0.5573939
H     4.3095794    1.0606054    0.8334846
C     3.5427346   -0.8855926    0.4749463
H     4.4731467   -1.3939704    0.7038822
C     2.4490052   -1.6474447   -0.0196319
C     1.2150704   -1.0057258   -0.3013573
C     0.2531113   -1.7434440   -1.0216591
H    -0.6541356   -1.2535051   -1.3462847
C     0.4494193   -3.0628597   -1.3413779
H    -0.3083162   -3.5944309   -1.9054060
C     1.6251726   -3.7207967   -0.9552541
H     1.7670048   -4.7687404   -1.1927019
C     2.6109872   -3.0144177   -0.3183050
H     3.5525612   -3.4902813   -0.0646367
Bq        -2.6354833642     0.3336602064     0.3219011726
Bq        -2.6700611962     0.5546040627     1.1936741854
Bq        -2.6316413829     0.3091108890     0.2250375045
Bq        -2.6508512896     0.4318574759     0.7093558449
Bq        -2.6537203167     0.5533466252     0.7816894836
Bq        -2.6460363540     0.5042479904     0.5879621474
Bq        -2.6575622980     0.5778959425     0.8785531517
Bq        -2.6421943727     0.4796986730     0.4910984793
Bq        -2.6614042793     0.6024452599     0.9754168198
Bq        -2.6383523914     0.4551493557     0.3942348112
Bq        -2.6652462607     0.6269945773     1.0722804878
Bq        -2.6345104100     0.4306000383     0.2973711431
Bq        -2.6690882420     0.6515438947     1.1691441559
Bq        -2.6306684287     0.4060507209     0.2005074750
Bq        -2.6498783353     0.5287973078     0.6848258155
Bq        -2.6527473624     0.6502864571     0.7571594542
Bq        -2.6450633998     0.6011878224     0.5634321180
Bq        -2.6565893438     0.6748357745     0.8540231222
Bq        -2.6412214185     0.5766385050     0.4665684499
Bq        -2.6604313251     0.6993850919     0.9508867903
Bq        -2.6373794371     0.5520891876     0.3697047818
Bq        -2.6642733064     0.7239344092     1.0477504584
Bq        -2.6335374558     0.5275398702     0.2728411137
Bq        -2.6681152878     0.7484837266     1.1446141265
Bq        -2.6296954745     0.5029905529     0.1759774456
Bq        -2.6489053811     0.6257371397     0.6602957861
Bq        -2.6517744082     0.7472262890     0.7326294247
Bq        -2.6440904456     0.6981276543     0.5389020885
Bq        -2.6556163896     0.7717756064     0.8294930928
Bq        -2.6402484642     0.6735783369     0.4420384205
Bq        -2.6594583709     0.7963249238     0.9263567609
Bq        -2.6364064829     0.6490290195     0.3451747524
Bq        -2.6633003522     0.8208742412     1.0232204290
Bq        -2.6325645016     0.6244797022     0.2483110843
Bq        -2.6671423335     0.8454235585     1.1200840971
Bq        -2.6287225202     0.5999303848     0.1514474162
Bq        -2.6479324269     0.7226769717     0.6357657566
Bq        -2.6508014540     0.8441661210     0.7080993953
Bq        -2.6431174913     0.7950674862     0.5143720591
Bq        -2.6546434353     0.8687154384     0.8049630634
Bq        -2.6392755100     0.7705181689     0.4175083910
Bq        -2.6584854167     0.8932647557     0.9018267315
Bq        -2.6354335287     0.7459688515     0.3206447229
Bq        -2.6623273980     0.9178140731     0.9986903996
Bq        -2.6315915474     0.7214195341     0.2237810548
Bq        -2.6661693793     0.9423633905     1.0955540677
Bq        -2.6277495660     0.6968702167     0.1269173868
Bq        -2.6469594727     0.8196168036     0.6112357272
Bq        -2.6498284998     0.9411059529     0.6835693659
Bq        -2.6421445371     0.8920073182     0.4898420297
Bq        -2.6536704811     0.9656552703     0.7804330340
Bq        -2.6383025558     0.8674580008     0.3929783616
Bq        -2.6575124624     0.9902045877     0.8772967020
Bq        -2.6344605745     0.8429086834     0.2961146935
Bq        -2.6613544438     1.0147539051     0.9741603701
Bq        -2.6306185931     0.8183593660     0.1992510254
Bq        -2.6651964251     1.0393032224     1.0710240382
Bq        -2.6267766118     0.7938100487     0.1023873573
Bq        -2.6459865184     0.9165566355     0.5867056978
Bq        -2.6488555455     1.0380457849     0.6590393364
Bq        -2.6411715829     0.9889471501     0.4653120003
Bq        -2.6526975269     1.0625951022     0.7559030045
Bq        -2.6373296016     0.9643978327     0.3684483322
Bq        -2.6565395082     1.0871444196     0.8527666726
Bq        -2.6334876202     0.9398485154     0.2715846641
Bq        -2.6603814895     1.1116937370     0.9496303407
Bq        -2.6296456389     0.9152991980     0.1747209960
Bq        -2.6642234709     1.1362430544     1.0464940088
Bq        -2.6258036576     0.8907498806     0.0778573279
Bq        -2.6450135642     1.0134964675     0.5621756684
Bq        -2.6478825913     1.1349856168     0.6345093070
Bq        -2.6401986287     1.0858869821     0.4407819708
Bq        -2.6517245727     1.1595349342     0.7313729751
Bq        -2.6363566473     1.0613376647     0.3439183027
Bq        -2.6555665540     1.1840842516     0.8282366432
Bq        -2.6325146660     1.0367883473     0.2470546347
Bq        -2.6594085353     1.2086335689     0.9251003113
Bq        -2.6286726847     1.0122390299     0.1501909666
Bq        -2.6632505166     1.2331828863     1.0219639794
Bq        -2.6248307033     0.9876897125     0.0533272985
Bq        -2.6440406100     1.1104362994     0.5376456389
Bq        -2.6469096371     1.2319254487     0.6099792776
Bq        -2.6392256744     1.1828268140     0.4162519414
Bq        -2.6507516184     1.2564747661     0.7068429457
Bq        -2.6353836931     1.1582774966     0.3193882733
Bq        -2.6545935998     1.2810240835     0.8037066138
Bq        -2.6315417118     1.1337281792     0.2225246052
Bq        -2.6584355811     1.3055734009     0.9005702819
Bq        -2.6276997305     1.1091788619     0.1256609371
Bq        -2.6622775624     1.3301227182     0.9974339499
Bq        -2.6238577491     1.0846295445     0.0287972690
Bq        -2.6430676558     1.2073761314     0.5131156095
Bq        -2.6459366829     1.3288652807     0.5854492482
Bq        -2.6382527202     1.2797666459     0.3917219120
Bq        -2.6497786642     1.3534145981     0.6823129163
Bq        -2.6344107389     1.2552173286     0.2948582439
Bq        -2.6536206455     1.3779639154     0.7791765843
Bq        -2.6305687576     1.2306680112     0.1979945758
Bq        -2.6574626269     1.4025132328     0.8760402524
Bq        -2.6267267762     1.2061186938     0.1011309077
Bq        -2.6613046082     1.4270625502     0.9729039205
Bq        -2.6228847949     1.1815693764     0.0042672396
Bq        -2.6420947015     1.3043159633     0.4885855801
Bq        -2.6449637286     1.4258051126     0.5609192187
Bq        -2.6372797660     1.3767064779     0.3671918826
Bq        -2.6488057100     1.4503544300     0.6577828868
Bq        -2.6334377847     1.3521571605     0.2703282145
Bq        -2.6526476913     1.4749037474     0.7546465549
Bq        -2.6295958033     1.3276078431     0.1734645464
Bq        -2.6564896726     1.4994530647     0.8515102230
Bq        -2.6257538220     1.3030585257     0.0766008783
Bq        -2.6603316540     1.5240023821     0.9483738911
Bq        -2.6219118407     1.2785092084    -0.0202627898
Bq        -2.6411217473     1.4012557952     0.4640555506
Bq        -2.6439907744     1.5227449446     0.5363891893
Bq        -2.6363068118     1.4736463098     0.3426618531
Bq        -2.6478327558     1.5472942619     0.6332528574
Bq        -2.6324648304     1.4490969924     0.2457981850
Bq        -2.6516747371     1.5718435793     0.7301165255
Bq        -2.6286228491     1.4245476751     0.1489345169
Bq        -2.6555167184     1.5963928967     0.8269801936
Bq        -2.6247808678     1.3999983577     0.0520708489
Bq        -2.6593586997     1.6209422141     0.9238438617
Bq        -2.6209388865     1.3754490403    -0.0447928192
Bq        -2.6401487931     1.4981956272     0.4395255212
Bq        -2.6430178202     1.6196847765     0.5118591599
Bq        -2.6353338575     1.5705861417     0.3181318237
Bq        -2.6468598015     1.6442340939     0.6087228280
Bq        -2.6314918762     1.5460368244     0.2212681556
Bq        -2.6507017829     1.6687834113     0.7055864961
Bq        -2.6276498949     1.5214875070     0.1244044875
Bq        -2.6545437642     1.6933327286     0.8024501641
Bq        -2.6238079136     1.4969381896     0.0275408194
Bq        -2.6583857455     1.7178820460     0.8993138322
Bq        -2.6199659322     1.4723888722    -0.0693228487
Bq        -2.6391758389     1.5951354591     0.4149954918
Bq        -2.6420448660     1.7166246084     0.4873291305
Bq        -2.6343609033     1.6675259737     0.2936017943
Bq        -2.6458868473     1.7411739258     0.5841927985
Bq        -2.6305189220     1.6429766563     0.1967381262
Bq        -2.6497288286     1.7657232432     0.6810564666
Bq        -2.6266769407     1.6184273389     0.0998744581
Bq        -2.6535708100     1.7902725606     0.7779201347
Bq        -2.6228349593     1.5938780216     0.0030107900
Bq        -2.6574127913     1.8148218779     0.8747838028
Bq        -2.6189929780     1.5693287042    -0.0938528781
Bq        -2.6382028846     1.6920752911     0.3904654624
Bq        -2.6410719118     1.8135644404     0.4627991010
Bq        -2.6333879491     1.7644658056     0.2690717648
Bq        -2.6449138931     1.8381137578     0.5596627691
Bq        -2.6295459678     1.7399164882     0.1722080968
Bq        -2.6487558744     1.8626630751     0.6565264372
Bq        -2.6257039864     1.7153671709     0.0753444287
Bq        -2.6525978557     1.8872123925     0.7533901053
Bq        -2.6218620051     1.6908178535    -0.0215192394
Bq        -2.6564398371     1.9117617099     0.8502537734
Bq        -2.6180200238     1.6662685361    -0.1183829075
Bq        -2.6372299304     1.7890151230     0.3659354329
Bq        -2.6400989575     1.9105042723     0.4382690716
Bq        -2.6324149949     1.8614056376     0.2445417354
Bq        -2.6439409389     1.9350535897     0.5351327397
Bq        -2.6285730135     1.8368563202     0.1476780673
Bq        -2.6477829202     1.9596029071     0.6319964078
Bq        -2.6247310322     1.8123070028     0.0508143992
Bq        -2.6516249015     1.9841522244     0.7288600759
Bq        -2.6208890509     1.7877576854    -0.0460492689
Bq        -2.6554668828     2.0087015418     0.8257237440
Bq        -2.6170470696     1.7632083681    -0.1429129369
Bq        -2.6362569762     1.8859549549     0.3414054035
Bq        -2.6391260033     2.0074441043     0.4137390422
Bq        -2.6314420406     1.9583454695     0.2200117060
Bq        -2.6429679846     2.0319934216     0.5106027103
Bq        -2.6276000593     1.9337961521     0.1231480379
Bq        -2.6468099660     2.0565427390     0.6074663784
Bq        -2.6237580780     1.9092468348     0.0262843698
Bq        -2.6506519473     2.0810920564     0.7043300464
Bq        -2.6199160967     1.8846975174    -0.0705792983
Bq        -2.6544939286     2.1056413738     0.8011937145
Bq        -2.6160741153     1.8601482000    -0.1674429664
Bq        -2.6352840220     1.9828947869     0.3168753741
Bq        -2.6381530491     2.1043839362     0.3892090127
Bq        -2.6304690864     2.0552853014     0.1954816766
Bq        -2.6419950304     2.1289332536     0.4860726808
Bq        -2.6266271051     2.0307359841     0.0986180085
Bq        -2.6458370117     2.1534825709     0.5829363489
Bq        -2.6227851238     2.0061866667     0.0017543404
Bq        -2.6496789931     2.1780318883     0.6798000170
Bq        -2.6189431424     1.9816373493    -0.0951093277
Bq        -2.6535209744     2.2025812057     0.7766636851
Bq        -2.6151011611     1.9570880319    -0.1919729958
Bq        -2.6343110677     2.0798346188     0.2923453447
Bq        -2.6371800949     2.2013237681     0.3646789833
Bq        -2.6294961322     2.1522251334     0.1709516471
Bq        -2.6410220762     2.2258730855     0.4615426514
Bq        -2.6256541509     2.1276758160     0.0740879790
Bq        -2.6448640575     2.2504224029     0.5584063195
Bq        -2.6218121695     2.1031264986    -0.0227756890
Bq        -2.6487060388     2.2749717203     0.6552699876
Bq        -2.6179701882     2.0785771813    -0.1196393571
Bq        -2.6525480202     2.2995210376     0.7521336557

1
2
3
4
5
6
7
8
9
10
11
12
13
14
15
16
17
18
19
20
21
22
23
24
25
26
27
28
29
30
31
32
33
34
35
36
37
38
39
40
41
42
43
44
45
46
47
48
49
50
51
52
53
54
55
56
57
58
59
60
61
62
63
64
65
66
67
68
69
70
71
72
73
74
75
76
77
78
79
80
81
82
83
84
85
86
87
88
89
90
91
92
93
94
95
96
97
98
99
100
101
102
103
104
105
106
107
108
109
110
111
112
113
114
115
116
117
118
119
120
121
122
123
124
125
126
127
128
129
130
131
132
133
134
135
136
137
138
139
140
141
142
143
144
145
146
147
148
149
150
151
152
153
154
155
156
157
158
159
160
161
162
163
164
165
166
167
168
169
170
171
172
173
174
175
176
177
178
179
180
181
182
183
184
185
186
187
188
189
190
191
192
193
194
195
196
197
198
199
200
201
202
203
204
205
206
207
208
209
210
211
212
213
214
215
216
217
218
219
220
221
222
223
224
225
226
227
228
229
230
231
232
233
234
235
236

