%nproc=8
%mem=1000MB
# rb3lyp/6-311+g** NMR geom=connectivity

Title

0 1
C    -4.0500558   -0.5771862    0.8136712
H    -5.0263804   -1.0082727    1.0024760
C    -3.9381552    0.6617804    0.2400876
H    -4.8252424    1.2338890   -0.0111295
C    -2.6768410    1.2433246    0.0057578
C    -1.4974121    0.5051527    0.2848253
C    -1.6508332   -0.7338728    0.9404026
H    -0.7713646   -1.2730967    1.2633753
C    -2.8898548   -1.2624035    1.1994307
H    -2.9683706   -2.2124563    1.7152676
C    -2.5773185    2.5963696   -0.4192930
H    -3.4870728    3.1412239   -0.6474055
C    -1.3741895    3.2147896   -0.4364030
H    -1.2997315    4.2742019   -0.6578144
C    -0.1719488    2.4994090   -0.1734588
C    -0.2043917    1.1018437    0.0192689
C     1.0513491    3.2042560   -0.0676222
H     1.0427344    4.2819499   -0.1896997
C     2.1942091    2.5487446    0.2579577
H     3.1168527    3.0912848    0.4334727
C     2.2216473    1.1336562    0.2934990
C     1.0486931    0.3945528    0.0302412
C     3.4483363    0.4614633    0.5573939
H     4.3095794    1.0606054    0.8334846
C     3.5427346   -0.8855926    0.4749463
H     4.4731467   -1.3939704    0.7038822
C     2.4490052   -1.6474447   -0.0196319
C     1.2150704   -1.0057258   -0.3013573
C     0.2531113   -1.7434440   -1.0216591
H    -0.6541356   -1.2535051   -1.3462847
C     0.4494193   -3.0628597   -1.3413779
H    -0.3083162   -3.5944309   -1.9054060
C     1.6251726   -3.7207967   -0.9552541
H     1.7670048   -4.7687404   -1.1927019
C     2.6109872   -3.0144177   -0.3183050
H     3.5525612   -3.4902813   -0.0646367
Bq         2.8986941395    -1.8773401121     0.9514560288
Bq         3.0581411946    -1.7708775077     0.6003971299
Bq         2.8588323757    -1.9039557632     1.0392207535
Bq         3.0980029584    -1.7442618566     0.5126324052
Bq         2.8189706119    -1.9305714143     1.1269854782
Bq         3.1378647222    -1.7176462055     0.4248676805
Bq         2.7791088481    -1.9571870654     1.2147502029
Bq         3.1777264860    -1.6910305543     0.3371029558
Bq         2.9784176671    -1.8241088099     0.7759265793
Bq         2.9275494299    -1.7543314783     0.8879245545
Bq         3.0072729575    -1.7011001761     0.7123951051
Bq         2.8876876661    -1.7809471294     0.9756892792
Bq         3.0471347213    -1.6744845250     0.6246303804
Bq         2.8478259023    -1.8075627805     1.0634540039
Bq         3.0869964851    -1.6478688739     0.5368656557
Bq         2.8079641385    -1.8341784316     1.1512187286
Bq         3.1268582488    -1.6212532227     0.4491009309
Bq         2.7681023748    -1.8607940827     1.2389834534
Bq         3.1667200126    -1.5946375716     0.3613362062
Bq         2.9674111937    -1.7277158272     0.8001598298
Bq         2.9165429565    -1.6579384956     0.9121578050
Bq         2.9962664841    -1.6047071934     0.7366283555
Bq         2.8766811927    -1.6845541467     0.9999225297
Bq         3.0361282479    -1.5780915422     0.6488636308
Bq         2.8368194290    -1.7111697978     1.0876872544
Bq         3.0759900117    -1.5514758911     0.5610989061
Bq         2.7969576652    -1.7377854489     1.1754519791
Bq         3.1158517755    -1.5248602400     0.4733341814
Bq         2.7570959014    -1.7644011000     1.2632167038
Bq         3.1557135393    -1.4982445889     0.3855694567
Bq         2.9564047203    -1.6313228445     0.8243930803
Bq         2.9055364832    -1.5615455129     0.9363910554
Bq         2.9852600107    -1.5083142106     0.7608616060
Bq         2.8656747194    -1.5881611640     1.0241557801
Bq         3.0251217745    -1.4816985595     0.6730968813
Bq         2.8258129556    -1.6147768151     1.1119205048
Bq         3.0649835383    -1.4550829084     0.5853321566
Bq         2.7859511918    -1.6413924662     1.1996852296
Bq         3.1048453021    -1.4284672573     0.4975674319
Bq         2.7460894280    -1.6680081173     1.2874499543
Bq         3.1447070659    -1.4018516062     0.4098027071
Bq         2.9453982469    -1.5349298617     0.8486263307
Bq         2.8945300098    -1.4651525301     0.9606243059
Bq         2.9742535374    -1.4119212279     0.7850948565
Bq         2.8546682460    -1.4917681812     1.0483890306
Bq         3.0141153011    -1.3853055768     0.6973301317
Bq         2.8148064822    -1.5183838324     1.1361537553
Bq         3.0539770649    -1.3586899257     0.6095654070
Bq         2.7749447184    -1.5449994835     1.2239184800
Bq         3.0938388287    -1.3320742746     0.5218006823
Bq         2.7350829546    -1.5716151346     1.3116832047
Bq         3.1337005925    -1.3054586235     0.4340359576
Bq         2.9343917736    -1.4385368790     0.8728595812
Bq         2.8835235364    -1.3687595474     0.9848575563
Bq         2.9632470640    -1.3155282452     0.8093281069
Bq         2.8436617726    -1.3953751985     1.0726222811
Bq         3.0031088278    -1.2889125941     0.7215633822
Bq         2.8038000088    -1.4219908496     1.1603870058
Bq         3.0429705916    -1.2622969430     0.6337986575
Bq         2.7639382451    -1.4486065008     1.2481517305
Bq         3.0828323554    -1.2356812919     0.5460339328
Bq         2.7240764813    -1.4752221519     1.3359164552
Bq         3.1226941191    -1.2090656408     0.4582692081
Bq         2.9233853002    -1.3421438963     0.8970928316
Bq         2.8725170630    -1.2723665647     1.0090908068
Bq         2.9522405906    -1.2191352625     0.8335613574
Bq         2.8326552993    -1.2989822158     1.0968555315
Bq         2.9921023544    -1.1925196114     0.7457966327
Bq         2.7927935355    -1.3255978669     1.1846202562
Bq         3.0319641182    -1.1659039603     0.6580319079
Bq         2.7529317717    -1.3522135180     1.2723849809
Bq         3.0718258820    -1.1392883092     0.5702671832
Bq         2.7130700079    -1.3788291691     1.3601497056
Bq         3.1116876458    -1.1126726581     0.4825024585
Bq         2.9123788268    -1.2457509136     0.9213260821
Bq         2.8615105897    -1.1759735820     1.0333240573
Bq         2.9412341172    -1.1227422798     0.8577946078
Bq         2.8216488259    -1.2025892331     1.1210887820
Bq         2.9810958810    -1.0961266287     0.7700298831
Bq         2.7817870621    -1.2292048842     1.2088535067
Bq         3.0209576448    -1.0695109776     0.6822651584
Bq         2.7419252983    -1.2558205353     1.2966182314
Bq         3.0608194086    -1.0428953265     0.5945004337
Bq         2.7020635345    -1.2824361864     1.3843829561
Bq         3.1006811724    -1.0162796754     0.5067357090
Bq         2.9013723535    -1.1493579309     0.9455593325
Bq         2.8505041163    -1.0795805993     1.0575573077
Bq         2.9302276439    -1.0263492971     0.8820278583
Bq         2.8106423525    -1.1061962504     1.1453220324
Bq         2.9700894077    -0.9997336460     0.7942631336
Bq         2.7707805887    -1.1328119015     1.2330867571
Bq         3.0099511714    -0.9731179949     0.7064984089
Bq         2.7309188249    -1.1594275526     1.3208514819
Bq         3.0498129352    -0.9465023438     0.6187336841
Bq         2.6910570611    -1.1860432037     1.4086162066
Bq         3.0896746990    -0.9198866927     0.5309689594
Bq         2.8903658801    -1.0529649482     0.9697925830
Bq         2.8394976429    -0.9831876166     1.0817905582
Bq         2.9192211705    -0.9299563144     0.9062611087
Bq         2.7996358791    -1.0098032677     1.1695552829
Bq         2.9590829343    -0.9033406633     0.8184963840
Bq         2.7597741153    -1.0364189188     1.2573200076
Bq         2.9989446981    -0.8767250122     0.7307316593
Bq         2.7199123516    -1.0630345699     1.3450847323
Bq         3.0388064619    -0.8501093610     0.6429669346
Bq         2.6800505878    -1.0896502210     1.4328494570
Bq         3.0786682256    -0.8234937099     0.5552022099
Bq         2.8793594067    -0.9565719655     0.9940258335
Bq         2.8284911696    -0.8867946339     1.1060238086
Bq         2.9082146971    -0.8335633317     0.9304943592
Bq         2.7886294058    -0.9134102850     1.1937885333
Bq         2.9480764609    -0.8069476805     0.8427296345
Bq         2.7487676420    -0.9400259361     1.2815532581
Bq         2.9879382247    -0.7803320294     0.7549649098
Bq         2.7089058782    -0.9666415872     1.3693179828
Bq         3.0277999885    -0.7537163783     0.6672001851
Bq         2.6690441144    -0.9932572383     1.4570827075
Bq         3.0676617523    -0.7271007272     0.5794354604
Bq         2.8683529333    -0.8601789828     1.0182590839
Bq         2.8174846962    -0.7904016512     1.1302570591
Bq         2.8972082238    -0.7371703489     0.9547276097
Bq         2.7776229324    -0.8170173023     1.2180217838
Bq         2.9370699875    -0.7105546978     0.8669628849
Bq         2.7377611686    -0.8436329534     1.3057865085
Bq         2.9769317513    -0.6839390467     0.7791981602
Bq         2.6978994048    -0.8702486045     1.3935512332
Bq         3.0167935151    -0.6573233956     0.6914334355
Bq         2.6580376410    -0.8968642556     1.4813159579
Bq         3.0566552789    -0.6307077445     0.6036687108
Bq         2.8573464600    -0.7637860000     1.0424923344
Bq         2.8064782228    -0.6940086684     1.1544903095
Bq         2.8862017504    -0.6407773662     0.9789608601
Bq         2.7666164590    -0.7206243196     1.2422550343
Bq         2.9260635142    -0.6141617151     0.8911961354
Bq         2.7267546952    -0.7472399707     1.3300197590
Bq         2.9659252780    -0.5875460640     0.8034314107
Bq         2.6868929314    -0.7738556218     1.4177844837
Bq         3.0057870417    -0.5609304129     0.7156666860
Bq         2.6470311677    -0.8004712729     1.5055492084
Bq         3.0456488055    -0.5343147618     0.6279019613
Bq         2.8463399866    -0.6673930173     1.0667255848
Bq         2.7954717494    -0.5976156857     1.1787235600
Bq         2.8751952770    -0.5443843835     1.0031941106
Bq         2.7556099856    -0.6242313368     1.2664882847
Bq         2.9150570408    -0.5177687324     0.9154293859
Bq         2.7157482219    -0.6508469879     1.3542530094
Bq         2.9549188046    -0.4911530813     0.8276646612
Bq         2.6758864581    -0.6774626391     1.4420177341
Bq         2.9947805684    -0.4645374302     0.7398999364
Bq         2.6360246943    -0.7040782902     1.5297824589
Bq         3.0346423322    -0.4379217791     0.6521352117
Bq         2.8353335132    -0.5710000346     1.0909588353
Bq         2.7844652761    -0.5012227030     1.2029568105
Bq         2.8641888036    -0.4479914008     1.0274273610
Bq         2.7446035123    -0.5278383541     1.2907215352
Bq         2.9040505674    -0.4213757497     0.9396626363
Bq         2.7047417485    -0.5544540052     1.3784862599
Bq         2.9439123312    -0.3947600986     0.8518979116
Bq         2.6648799847    -0.5810696563     1.4662509846
Bq         2.9837740950    -0.3681444475     0.7641331869
Bq         2.6250182209    -0.6076853074     1.5540157093
Bq         3.0236358588    -0.3415287964     0.6763684622
Bq         2.8243270399    -0.4746070519     1.1151920857
Bq         2.7734588027    -0.4048297203     1.2271900609
Bq         2.8531823303    -0.3515984181     1.0516606115
Bq         2.7335970389    -0.4314453714     1.3149547856
Bq         2.8930440941    -0.3249827670     0.9638958868
Bq         2.6937352751    -0.4580610225     1.4027195103
Bq         2.9329058578    -0.2983671159     0.8761311621
Bq         2.6538735113    -0.4846766736     1.4904842351
Bq         2.9727676216    -0.2717514648     0.7883664374
Bq         2.6140117475    -0.5112923247     1.5782489598
Bq         3.0126293854    -0.2451358137     0.7006017126
Bq         2.8133205665    -0.3782140692     1.1394253362
Bq         2.7624523293    -0.3084367376     1.2514233114
Bq         2.8421758569    -0.2552054354     1.0758938620
Bq         2.7225905655    -0.3350523887     1.3391880361
Bq         2.8820376207    -0.2285897843     0.9881291372
Bq         2.6827288017    -0.3616680398     1.4269527608
Bq         2.9218993845    -0.2019741332     0.9003644125
Bq         2.6428670380    -0.3882836909     1.5147174855
Bq         2.9617611483    -0.1753584821     0.8125996878
Bq         2.6030052742    -0.4148993420     1.6024822102
Bq         3.0016229120    -0.1487428310     0.7248349631
Bq         2.8023140931    -0.2818210865     1.1636585867
Bq         2.7514458559    -0.2120437549     1.2756565618
Bq         2.8311693835    -0.1588124527     1.1001271124
Bq         2.7115840922    -0.2386594060     1.3634212865
Bq         2.8710311473    -0.1321968016     1.0123623877
Bq         2.6717223284    -0.2652750571     1.4511860113
Bq         2.9108929111    -0.1055811505     0.9245976630
Bq         2.6318605646    -0.2918907082     1.5389507360
Bq         2.9507546749    -0.0789654993     0.8368329383
Bq         2.5919988008    -0.3185063593     1.6267154607
Bq         2.9906164387    -0.0523498482     0.7490682136
Bq         2.7913076197    -0.1854281038     1.1878918371
Bq         2.7404393826    -0.1156507722     1.2998898123
Bq         2.8201629102    -0.0624194700     1.1243603629
Bq         2.7005776188    -0.1422664233     1.3876545370
Bq         2.8600246739    -0.0358038189     1.0365956382

1
2
3
4
5
6
7
8
9
10
11
12
13
14
15
16
17
18
19
20
21
22
23
24
25
26
27
28
29
30
31
32
33
34
35
36
37
38
39
40
41
42
43
44
45
46
47
48
49
50
51
52
53
54
55
56
57
58
59
60
61
62
63
64
65
66
67
68
69
70
71
72
73
74
75
76
77
78
79
80
81
82
83
84
85
86
87
88
89
90
91
92
93
94
95
96
97
98
99
100
101
102
103
104
105
106
107
108
109
110
111
112
113
114
115
116
117
118
119
120
121
122
123
124
125
126
127
128
129
130
131
132
133
134
135
136
137
138
139
140
141
142
143
144
145
146
147
148
149
150
151
152
153
154
155
156
157
158
159
160
161
162
163
164
165
166
167
168
169
170
171
172
173
174
175
176
177
178
179
180
181
182
183
184
185
186
187
188
189
190
191
192
193
194
195
196
197
198
199
200
201
202
203
204
205
206
207
208
209
210
211
212
213
214
215
216
217
218
219
220
221
222
223
224
225
226
227
228
229
230
231
232
233
234
235
236

