%nproc=8
%mem=1000MB
# rb3lyp/6-311+g** NMR geom=connectivity

Title

0 1
C    -4.0500558   -0.5771862    0.8136712
H    -5.0263804   -1.0082727    1.0024760
C    -3.9381552    0.6617804    0.2400876
H    -4.8252424    1.2338890   -0.0111295
C    -2.6768410    1.2433246    0.0057578
C    -1.4974121    0.5051527    0.2848253
C    -1.6508332   -0.7338728    0.9404026
H    -0.7713646   -1.2730967    1.2633753
C    -2.8898548   -1.2624035    1.1994307
H    -2.9683706   -2.2124563    1.7152676
C    -2.5773185    2.5963696   -0.4192930
H    -3.4870728    3.1412239   -0.6474055
C    -1.3741895    3.2147896   -0.4364030
H    -1.2997315    4.2742019   -0.6578144
C    -0.1719488    2.4994090   -0.1734588
C    -0.2043917    1.1018437    0.0192689
C     1.0513491    3.2042560   -0.0676222
H     1.0427344    4.2819499   -0.1896997
C     2.1942091    2.5487446    0.2579577
H     3.1168527    3.0912848    0.4334727
C     2.2216473    1.1336562    0.2934990
C     1.0486931    0.3945528    0.0302412
C     3.4483363    0.4614633    0.5573939
H     4.3095794    1.0606054    0.8334846
C     3.5427346   -0.8855926    0.4749463
H     4.4731467   -1.3939704    0.7038822
C     2.4490052   -1.6474447   -0.0196319
C     1.2150704   -1.0057258   -0.3013573
C     0.2531113   -1.7434440   -1.0216591
H    -0.6541356   -1.2535051   -1.3462847
C     0.4494193   -3.0628597   -1.3413779
H    -0.3083162   -3.5944309   -1.9054060
C     1.6251726   -3.7207967   -0.9552541
H     1.7670048   -4.7687404   -1.1927019
C     2.6109872   -3.0144177   -0.3183050
H     3.5525612   -3.4902813   -0.0646367
Bq         2.5145250094     1.1440701195     0.9188552302
Bq         2.5434769155     1.1342431494     0.7212060010
Bq         2.5000490564     1.1489836046     1.0176798447
Bq         2.5579528686     1.1293296643     0.6223813864
Bq         2.4855731033     1.1538970897     1.1165044593
Bq         2.5724288216     1.1244161792     0.5235567718
Bq         2.4710971503     1.1588105748     1.2153290739
Bq         2.5869047746     1.1195026941     0.4247321572
Bq         2.4566211972     1.1637240599     1.3141536885
Bq         2.6013807277     1.1145892090     0.3259075427
Bq         2.5290009625     1.1391566344     0.8200306156
Bq         2.5152371434     1.2439493349     0.9139936254
Bq         2.5441890495     1.2341223647     0.7163443962
Bq         2.5007611903     1.2488628200     1.0128182400
Bq         2.5586650025     1.2292088797     0.6175197816
Bq         2.4862852373     1.2537763051     1.1116428546
Bq         2.5731409555     1.2242953946     0.5186951671
Bq         2.4718092842     1.2586897901     1.2104674692
Bq         2.5876169086     1.2193819095     0.4198705525
Bq         2.4573333312     1.2636032752     1.3092920837
Bq         2.6020928616     1.2144684244     0.3210459379
Bq         2.5297130964     1.2390358498     0.8151690108
Bq         2.5159492773     1.3438285503     0.9091320206
Bq         2.5449011834     1.3340015801     0.7114827915
Bq         2.5014733243     1.3487420354     1.0079566352
Bq         2.5593771364     1.3290880950     0.6126581769
Bq         2.4869973712     1.3536555204     1.1067812498
Bq         2.5738530895     1.3241746099     0.5138335623
Bq         2.4725214182     1.3585690055     1.2056058644
Bq         2.5883290425     1.3192611249     0.4150089477
Bq         2.4580454651     1.3634824906     1.3044304790
Bq         2.6028049956     1.3143476398     0.3161843331
Bq         2.5304252303     1.3389150652     0.8103074060
Bq         2.5166614112     1.4437077657     0.9042704159
Bq         2.5456133173     1.4338807955     0.7066211867
Bq         2.5021854582     1.4486212507     1.0030950304
Bq         2.5600892704     1.4289673104     0.6077965721
Bq         2.4877095052     1.4535347358     1.1019196450
Bq         2.5745652234     1.4240538253     0.5089719575
Bq         2.4732335521     1.4584482209     1.2007442596
Bq         2.5890411765     1.4191403402     0.4101473429
Bq         2.4587575991     1.4633617060     1.2995688742
Bq         2.6035171295     1.4142268552     0.3113227284
Bq         2.5311373643     1.4387942806     0.8054458013
Bq         2.5173735452     1.5435869810     0.8994088111
Bq         2.5463254513     1.5337600109     0.7017595819
Bq         2.5028975921     1.5485004661     0.9982334257
Bq         2.5608014043     1.5288465258     0.6029349673
Bq         2.4884216391     1.5534139512     1.0970580403
Bq         2.5752773574     1.5239330407     0.5041103528
Bq         2.4739456861     1.5583274363     1.1958826549
Bq         2.5897533104     1.5190195556     0.4052857382
Bq         2.4594697330     1.5632409214     1.2947072694
Bq         2.6042292635     1.5141060705     0.3064611236
Bq         2.5318494982     1.5386734959     0.8005841965
Bq         2.5180856791     1.6434661964     0.8945472063
Bq         2.5470375852     1.6336392262     0.6968979772
Bq         2.5036097261     1.6483796815     0.9933718209
Bq         2.5615135383     1.6287257412     0.5980733626
Bq         2.4891337730     1.6532931666     1.0921964355
Bq         2.5759894913     1.6238122561     0.4992487480
Bq         2.4746578200     1.6582066517     1.1910210501
Bq         2.5904654444     1.6188987710     0.4004241334
Bq         2.4601818670     1.6631201367     1.2898456647
Bq         2.6049413974     1.6139852859     0.3015995188
Bq         2.5325616322     1.6385527113     0.7957225917
Bq         2.5187978131     1.7433454118     0.8896856016
Bq         2.5477497192     1.7335184416     0.6920363724
Bq         2.5043218600     1.7482588969     0.9885102161
Bq         2.5622256722     1.7286049565     0.5932117578
Bq         2.4898459070     1.7531723819     1.0873348307
Bq         2.5767016252     1.7236914715     0.4943871432
Bq         2.4753699539     1.7580858670     1.1861594453
Bq         2.5911775783     1.7187779864     0.3955625286
Bq         2.4608940009     1.7629993521     1.2849840599
Bq         2.6056535313     1.7138645013     0.2967379141
Bq         2.5332737661     1.7384319267     0.7908609870
Bq         2.5195099470     1.8432246272     0.8848239968
Bq         2.5484618531     1.8333976570     0.6871747676
Bq         2.5050339940     1.8481381122     0.9836486114
Bq         2.5629378061     1.8284841719     0.5883501530
Bq         2.4905580409     1.8530515973     1.0824732260
Bq         2.5774137592     1.8235706868     0.4895255385
Bq         2.4760820879     1.8579650824     1.1812978406
Bq         2.5918897122     1.8186572017     0.3907009239
Bq         2.4616061348     1.8628785675     1.2801224551
Bq         2.6063656653     1.8137437167     0.2918763093
Bq         2.5339859001     1.8383111421     0.7859993822
Bq         2.5202220810     1.9431038425     0.8799623920
Bq         2.5491739870     1.9332768724     0.6823131629
Bq         2.5057461279     1.9480173276     0.9787870066
Bq         2.5636499401     1.9283633873     0.5834885483
Bq         2.4912701749     1.9529308127     1.0776116212
Bq         2.5781258931     1.9234499022     0.4846639337
Bq         2.4767942218     1.9578442978     1.1764362358
Bq         2.5926018462     1.9185364171     0.3858393191
Bq         2.4623182688     1.9627577829     1.2752608504
Bq         2.6070777992     1.9136229320     0.2870147045
Bq         2.5346980340     1.9381903575     0.7811377774
Bq         2.5209342149     2.0429830579     0.8751007873
Bq         2.5498861210     2.0331560878     0.6774515581
Bq         2.5064582619     2.0478965430     0.9739254018
Bq         2.5643620740     2.0282426027     0.5786269435
Bq         2.4919823088     2.0528100281     1.0727500164
Bq         2.5788380271     2.0233291176     0.4798023289
Bq         2.4775063558     2.0577235132     1.1715746310
Bq         2.5933139801     2.0184156325     0.3809777143
Bq         2.4630304027     2.0626369982     1.2703992456
Bq         2.6077899332     2.0135021474     0.2821530998
Bq         2.5354101679     2.0380695728     0.7762761727
Bq         2.5216463488     2.1428622733     0.8702391825
Bq         2.5505982549     2.1330353031     0.6725899533
Bq         2.5071703958     2.1477757584     0.9690637971
Bq         2.5650742080     2.1281218180     0.5737653387
Bq         2.4926944427     2.1526892435     1.0678884117
Bq         2.5795501610     2.1232083330     0.4749407242
Bq         2.4782184897     2.1576027285     1.1667130263
Bq         2.5940261141     2.1182948479     0.3761161096
Bq         2.4637425367     2.1625162136     1.2655376408
Bq         2.6085020671     2.1133813628     0.2772914950
Bq         2.5361223019     2.1379487882     0.7714145679
Bq         2.5223584828     2.2427414887     0.8653775777
Bq         2.5513103889     2.2329145185     0.6677283486
Bq         2.5078825297     2.2476549738     0.9642021923
Bq         2.5657863419     2.2280010334     0.5689037340
Bq         2.4934065767     2.2525684588     1.0630268069
Bq         2.5802622950     2.2230875483     0.4700791194
Bq         2.4789306236     2.2574819439     1.1618514215
Bq         2.5947382480     2.2181740633     0.3712545048
Bq         2.4644546706     2.2623954290     1.2606760361
Bq         2.6092142010     2.2132605782     0.2724298902
Bq         2.5368344358     2.2378280036     0.7665529631
Bq         2.5230706167     2.3426207040     0.8605159730
Bq         2.5520225228     2.3327937339     0.6628667438
Bq         2.5085946637     2.3475341891     0.9593405876
Bq         2.5664984759     2.3278802488     0.5640421292
Bq         2.4941187106     2.3524476742     1.0581652021
Bq         2.5809744289     2.3229667637     0.4652175146
Bq         2.4796427576     2.3573611593     1.1569898167
Bq         2.5954503819     2.3180532786     0.3663929000
Bq         2.4651668045     2.3622746444     1.2558144313
Bq         2.6099263350     2.3131397936     0.2675682855
Bq         2.5375465698     2.3377072190     0.7616913584
Bq         2.5237827507     2.4424999194     0.8556543682
Bq         2.5527346568     2.4326729493     0.6580051390
Bq         2.5093067976     2.4474134045     0.9544789828
Bq         2.5672106098     2.4277594642     0.5591805244
Bq         2.4948308446     2.4523268896     1.0533035974
Bq         2.5816865628     2.4228459791     0.4603559099
Bq         2.4803548915     2.4572403747     1.1521282120
Bq         2.5961625159     2.4179324940     0.3615312953
Bq         2.4658789385     2.4621538598     1.2509528265
Bq         2.6106384689     2.4130190089     0.2627066807
Bq         2.5382587037     2.4375864343     0.7568297536
Bq         2.5244948846     2.5423791348     0.8507927634
Bq         2.5534467907     2.5325521646     0.6531435343
Bq         2.5100189316     2.5472926199     0.9496173780
Bq         2.5679227437     2.5276386796     0.5543189197
Bq         2.4955429785     2.5522061050     1.0484419926
Bq         2.5823986968     2.5227251945     0.4554943051
Bq         2.4810670255     2.5571195900     1.1472666072
Bq         2.5968746498     2.5178117094     0.3566696905
Bq         2.4665910724     2.5620330751     1.2460912218
Bq         2.6113506029     2.5128982243     0.2578450759
Bq         2.5389708376     2.5374656497     0.7519681488
Bq         2.5252070185     2.6422583502     0.8459311587
Bq         2.5541589246     2.6324313800     0.6482819295
Bq         2.5107310655     2.6471718353     0.9447557733
Bq         2.5686348777     2.6275178949     0.5494573149
Bq         2.4962551125     2.6520853203     1.0435803878
Bq         2.5831108307     2.6226044098     0.4506327003
Bq         2.4817791594     2.6569988054     1.1424050024
Bq         2.5975867838     2.6176909248     0.3518080857
Bq         2.4673032064     2.6619122905     1.2412296170
Bq         2.6120627368     2.6127774397     0.2529834712
Bq         2.5396829716     2.6373448651     0.7471065441
Bq         2.5259191525     2.7421375656     0.8410695539
Bq         2.5548710586     2.7323105954     0.6434203247
Bq         2.5114431994     2.7470510506     0.9398941685
Bq         2.5693470116     2.7273971103     0.5445957101
Bq         2.4969672464     2.7519645357     1.0387187831
Bq         2.5838229647     2.7224836252     0.4457710956
Bq         2.4824912934     2.7568780208     1.1375433977
Bq         2.5982989177     2.7175701401     0.3469464810
Bq         2.4680153403     2.7617915059     1.2363680122
Bq         2.6127748708     2.7126566551     0.2481218664
Bq         2.5403951055     2.7372240805     0.7422449393
Bq         2.5266312864     2.8420167809     0.8362079491
Bq         2.5555831925     2.8321898108     0.6385587200
Bq         2.5121553334     2.8469302660     0.9350325637
Bq         2.5700591456     2.8272763257     0.5397341054
Bq         2.4976793803     2.8518437511     1.0338571783
Bq         2.5845350986     2.8223628406     0.4409094908
Bq         2.4832034273     2.8567572362     1.1326817929
Bq         2.5990110517     2.8174493555     0.3420848762
Bq         2.4687274743     2.8616707213     1.2315064075
Bq         2.6134870047     2.8125358704     0.2432602616
Bq         2.5411072395     2.8371032959     0.7373833345
Bq         2.5273434204     2.9418959963     0.8313463444
Bq         2.5562953265     2.9320690261     0.6336971152

1
2
3
4
5
6
7
8
9
10
11
12
13
14
15
16
17
18
19
20
21
22
23
24
25
26
27
28
29
30
31
32
33
34
35
36
37
38
39
40
41
42
43
44
45
46
47
48
49
50
51
52
53
54
55
56
57
58
59
60
61
62
63
64
65
66
67
68
69
70
71
72
73
74
75
76
77
78
79
80
81
82
83
84
85
86
87
88
89
90
91
92
93
94
95
96
97
98
99
100
101
102
103
104
105
106
107
108
109
110
111
112
113
114
115
116
117
118
119
120
121
122
123
124
125
126
127
128
129
130
131
132
133
134
135
136
137
138
139
140
141
142
143
144
145
146
147
148
149
150
151
152
153
154
155
156
157
158
159
160
161
162
163
164
165
166
167
168
169
170
171
172
173
174
175
176
177
178
179
180
181
182
183
184
185
186
187
188
189
190
191
192
193
194
195
196
197
198
199
200
201
202
203
204
205
206
207
208
209
210
211
212
213
214
215
216
217
218
219
220
221
222
223
224
225
226
227
228
229
230
231
232
233
234
235
236

