%nproc=8
%mem=1000MB
# rb3lyp/6-311+g** NMR geom=connectivity

Title

0 1
C    -4.0500558   -0.5771862    0.8136712
H    -5.0263804   -1.0082727    1.0024760
C    -3.9381552    0.6617804    0.2400876
H    -4.8252424    1.2338890   -0.0111295
C    -2.6768410    1.2433246    0.0057578
C    -1.4974121    0.5051527    0.2848253
C    -1.6508332   -0.7338728    0.9404026
H    -0.7713646   -1.2730967    1.2633753
C    -2.8898548   -1.2624035    1.1994307
H    -2.9683706   -2.2124563    1.7152676
C    -2.5773185    2.5963696   -0.4192930
H    -3.4870728    3.1412239   -0.6474055
C    -1.3741895    3.2147896   -0.4364030
H    -1.2997315    4.2742019   -0.6578144
C    -0.1719488    2.4994090   -0.1734588
C    -0.2043917    1.1018437    0.0192689
C     1.0513491    3.2042560   -0.0676222
H     1.0427344    4.2819499   -0.1896997
C     2.1942091    2.5487446    0.2579577
H     3.1168527    3.0912848    0.4334727
C     2.2216473    1.1336562    0.2934990
C     1.0486931    0.3945528    0.0302412
C     3.4483363    0.4614633    0.5573939
H     4.3095794    1.0606054    0.8334846
C     3.5427346   -0.8855926    0.4749463
H     4.4731467   -1.3939704    0.7038822
C     2.4490052   -1.6474447   -0.0196319
C     1.2150704   -1.0057258   -0.3013573
C     0.2531113   -1.7434440   -1.0216591
H    -0.6541356   -1.2535051   -1.3462847
C     0.4494193   -3.0628597   -1.3413779
H    -0.3083162   -3.5944309   -1.9054060
C     1.6251726   -3.7207967   -0.9552541
H     1.7670048   -4.7687404   -1.1927019
C     2.6109872   -3.0144177   -0.3183050
H     3.5525612   -3.4902813   -0.0646367
Bq        -2.6849942289     1.4447603651     0.8697566702
Bq        -2.6821622643     1.0968986291     0.1493510951
Bq        -2.6853482244     1.4882430821     0.9598073670
Bq        -2.6818082687     1.0534159120     0.0593003982
Bq        -2.6835782466     1.2708294971     0.5095538826
Bq        -2.6837613099     1.4043636067     0.5561221985
Bq        -2.6830533187     1.3173981727     0.3760208047
Bq        -2.6841153054     1.4478463237     0.6461728954
Bq        -2.6826993231     1.2739154557     0.2859701078
Bq        -2.6844693010     1.4913290408     0.7362235922
Bq        -2.6823453276     1.2304327387     0.1959194110
Bq        -2.6848232966     1.5348117578     0.8262742891
Bq        -2.6819913320     1.1869500217     0.1058687141
Bq        -2.6851772922     1.5782944748     0.9163249860
Bq        -2.6816373364     1.1434673047     0.0158180172
Bq        -2.6834073143     1.3608808897     0.4660715016
Bq        -2.6835903776     1.4944149994     0.5126398174
Bq        -2.6828823864     1.4074495654     0.3325384237
Bq        -2.6839443732     1.5378977164     0.6026905143
Bq        -2.6825283909     1.3639668484     0.2424877268
Bq        -2.6842983687     1.5813804334     0.6927412112
Bq        -2.6821743953     1.3204841314     0.1524370299
Bq        -2.6846523643     1.6248631504     0.7827919081
Bq        -2.6818203997     1.2770014144     0.0623863330
Bq        -2.6850063599     1.6683458674     0.8728426050
Bq        -2.6814664041     1.2335186974    -0.0276643638
Bq        -2.6832363820     1.4509322824     0.4225891206
Bq        -2.6834194453     1.5844663921     0.4691574364
Bq        -2.6827114542     1.4975009581     0.2890560427
Bq        -2.6837734409     1.6279491091     0.5592081333
Bq        -2.6823574586     1.4540182411     0.1990053458
Bq        -2.6841274365     1.6714318261     0.6492588302
Bq        -2.6820034630     1.4105355241     0.1089546489
Bq        -2.6844814320     1.7149145431     0.7393095271
Bq        -2.6816494674     1.3670528071     0.0189039520
Bq        -2.6848354276     1.7583972601     0.8293602239
Bq        -2.6812954719     1.3235700901    -0.0711467449
Bq        -2.6830654497     1.5409836751     0.3791067395
Bq        -2.6832485130     1.6745177848     0.4256750554
Bq        -2.6825405219     1.5875523507     0.2455736616
Bq        -2.6836025086     1.7180005018     0.5157257523
Bq        -2.6821865263     1.5440696337     0.1555229647
Bq        -2.6839565042     1.7614832188     0.6057764492
Bq        -2.6818325307     1.5005869167     0.0654722679
Bq        -2.6843104998     1.8049659358     0.6958271460
Bq        -2.6814785352     1.4571041997    -0.0245784290
Bq        -2.6846644953     1.8484486528     0.7858778429
Bq        -2.6811245396     1.4136214827    -0.1146291259
Bq        -2.6828945175     1.6310350678     0.3356243585
Bq        -2.6830775808     1.7645691774     0.3821926744
Bq        -2.6823695896     1.6776037434     0.2020912806
Bq        -2.6834315763     1.8080518944     0.4722433712
Bq        -2.6820155940     1.6341210264     0.1120405837
Bq        -2.6837855719     1.8515346114     0.5622940681
Bq        -2.6816615985     1.5906383094     0.0219898868
Bq        -2.6841395675     1.8950173284     0.6523447650
Bq        -2.6813076029     1.5471555924    -0.0680608101
Bq        -2.6844935631     1.9385000454     0.7423954619
Bq        -2.6809536073     1.5036728754    -0.1581115069
Bq        -2.6827235852     1.7210864604     0.2921419775
Bq        -2.6829066485     1.8546205701     0.3387102933
Bq        -2.6821986573     1.7676551361     0.1586088996
Bq        -2.6832606441     1.8981032871     0.4287609902
Bq        -2.6818446618     1.7241724191     0.0685582027
Bq        -2.6836146396     1.9415860041     0.5188116871
Bq        -2.6814906662     1.6806897021    -0.0214924942
Bq        -2.6839686352     1.9850687211     0.6088623840
Bq        -2.6811366706     1.6372069851    -0.1115431911
Bq        -2.6843226308     2.0285514381     0.6989130809
Bq        -2.6807826750     1.5937242681    -0.2015938880
Bq        -2.6825526529     1.8111378531     0.2486595964
Bq        -2.6827357162     1.9446719628     0.2952279123
Bq        -2.6820277251     1.8577065288     0.1151265185
Bq        -2.6830897118     1.9881546798     0.3852786092
Bq        -2.6816737295     1.8142238118     0.0250758216
Bq        -2.6834437074     2.0316373968     0.4753293061
Bq        -2.6813197339     1.7707410947    -0.0649748752
Bq        -2.6837977029     2.0751201138     0.5653800029
Bq        -2.6809657383     1.7272583777    -0.1550255721
Bq        -2.6841516985     2.1186028308     0.6554306998
Bq        -2.6806117428     1.6837756607    -0.2450762690
Bq        -2.6823817206     1.9011892458     0.2051772154
Bq        -2.6825647839     2.0347233554     0.2517455313
Bq        -2.6818567928     1.9477579214     0.0716441375
Bq        -2.6829187795     2.0782060724     0.3417962281
Bq        -2.6815027972     1.9042752044    -0.0184065594
Bq        -2.6832727751     2.1216887894     0.4318469250
Bq        -2.6811488016     1.8607924874    -0.1084572563
Bq        -2.6836267707     2.1651715065     0.5218976219
Bq        -2.6807948061     1.8173097704    -0.1985079532
Bq        -2.6839807662     2.2086542235     0.6119483188
Bq        -2.6804408105     1.7738270534    -0.2885586500
Bq        -2.6822107884     1.9912406384     0.1616948344
Bq        -2.6823938517     2.1247747481     0.2082631502
Bq        -2.6816858605     2.0378093141     0.0281617565
Bq        -2.6827478472     2.1682574651     0.2983138471
Bq        -2.6813318649     1.9943265971    -0.0618889404
Bq        -2.6831018428     2.2117401821     0.3883645440
Bq        -2.6809778694     1.9508438801    -0.1519396373
Bq        -2.6834558384     2.2552228991     0.4784152409
Bq        -2.6806238738     1.9073611631    -0.2419903342
Bq        -2.6838098340     2.2987056161     0.5684659378
Bq        -2.6802698782     1.8638784461    -0.3320410311
Bq        -2.6820398561     2.0812920311     0.1182124533
Bq        -2.6822229194     2.2148261408     0.1647807692
Bq        -2.6815149282     2.1278607068    -0.0153206246
Bq        -2.6825769150     2.2583088578     0.2548314661
Bq        -2.6811609327     2.0843779898    -0.1053713215
Bq        -2.6829309105     2.3017915748     0.3448821630
Bq        -2.6808069371     2.0408952728    -0.1954220183
Bq        -2.6832849061     2.3452742918     0.4349328598
Bq        -2.6804529415     1.9974125558    -0.2854727152
Bq        -2.6836389017     2.3887570088     0.5249835567
Bq        -2.6800989459     1.9539298388    -0.3755234121
Bq        -2.6818689238     2.1713434238     0.0747300723
Bq        -2.6820519871     2.3048775334     0.1212983882
Bq        -2.6813439960     2.2179120994    -0.0588030056
Bq        -2.6824059827     2.3483602505     0.2113490850
Bq        -2.6809900004     2.1744293824    -0.1488537025
Bq        -2.6827599783     2.3918429675     0.3013997819
Bq        -2.6806360048     2.1309466654    -0.2389043994
Bq        -2.6831139738     2.4353256845     0.3914504788
Bq        -2.6802820092     2.0874639484    -0.3289550963
Bq        -2.6834679694     2.4788084015     0.4815011757
Bq        -2.6799280137     2.0439812314    -0.4190057931
Bq        -2.6816979915     2.2613948164     0.0312476913
Bq        -2.6818810548     2.3949289261     0.0778160071
Bq        -2.6811730637     2.3079634921    -0.1022853866
Bq        -2.6822350504     2.4384116431     0.1678667040
Bq        -2.6808190681     2.2644807751    -0.1923360835
Bq        -2.6825890460     2.4818943601     0.2579174009
Bq        -2.6804650725     2.2209980581    -0.2823867804
Bq        -2.6829430416     2.5253770771     0.3479680978
Bq        -2.6801110770     2.1775153411    -0.3724374773
Bq        -2.6832970371     2.5688597941     0.4380187947
Bq        -2.6797570814     2.1340326241    -0.4624881742
Bq        -2.6815270593     2.3514462091    -0.0122346898
Bq        -2.6817101226     2.4849803188     0.0343336261
Bq        -2.6810021314     2.3980148848    -0.1457677677
Bq        -2.6820641181     2.5284630358     0.1243843230
Bq        -2.6806481358     2.3545321678    -0.2358184646
Bq        -2.6824181137     2.5719457528     0.2144350199
Bq        -2.6802941403     2.3110494508    -0.3258691614
Bq        -2.6827721093     2.6154284698     0.3044857167
Bq        -2.6799401447     2.2675667338    -0.4159198583
Bq        -2.6831261049     2.6589111868     0.3945364136
Bq        -2.6795861491     2.2240840168    -0.5059705552
Bq        -2.6813561270     2.4414976018    -0.0557170708
Bq        -2.5902575090    -2.0175893147     2.2088457817
Bq        -2.5895495178    -2.1045547487     2.0287443879
Bq        -2.5906115045    -1.9741065977     2.2988964785
Bq        -2.5891955222    -2.1480374658     1.9386936910
Bq        -2.5909655001    -1.9306238807     2.3889471754
Bq        -2.5888415267    -2.1915201828     1.8486429941
Bq        -2.5913194957    -1.8871411637     2.4789978723
Bq        -2.5884875311    -2.2350028998     1.7585922972
Bq        -2.5916734913    -1.8436584467     2.5690485692
Bq        -2.5881335355    -2.2784856168     1.6685416004
Bq        -2.5899035134    -2.0610720317     2.1187950848
Bq        -2.5900865767    -1.9275379221     2.1653634006
Bq        -2.5893785855    -2.0145033561     1.9852620069
Bq        -2.5904405723    -1.8840552051     2.2554140975
Bq        -2.5890245900    -2.0579860731     1.8952113100
Bq        -2.5907945678    -1.8405724881     2.3454647944
Bq        -2.5886705944    -2.1014687901     1.8051606131
Bq        -2.5911485634    -1.7970897711     2.4355154913
Bq        -2.5883165988    -2.1449515071     1.7151099162
Bq        -2.5915025590    -1.7536070540     2.5255661882
Bq        -2.5879626032    -2.1884342241     1.6250592193
Bq        -2.5897325811    -1.9710206391     2.0753127037
Bq        -2.5899156444    -1.8374865294     2.1218810196
Bq        -2.5892076533    -1.9244519634     1.9417796258
Bq        -2.5902696400    -1.7940038124     2.2119317165
Bq        -2.5888536577    -1.9679346804     1.8517289289
Bq        -2.5906236356    -1.7505210954     2.3019824134
Bq        -2.5884996621    -2.0114173974     1.7616782321
Bq        -2.5909776311    -1.7070383784     2.3920331102
Bq        -2.5881456665    -2.0549001144     1.6716275352
Bq        -2.5913316267    -1.6635556614     2.4820838071
Bq        -2.5877916710    -2.0983828314     1.5815768383
Bq        -2.5895616488    -1.8809692464     2.0318303227
Bq        -2.5897447121    -1.7474351367     2.0783986386
Bq        -2.5890367210    -1.8344005707     1.8982972448
Bq        -2.5900987077    -1.7039524197     2.1684493354
Bq        -2.5886827254    -1.8778832877     1.8082465479
Bq        -2.5904527033    -1.6604697027     2.2585000323
Bq        -2.5883287298    -1.9213660047     1.7181958510
Bq        -2.5908066989    -1.6169869857     2.3485507292
Bq        -2.5879747343    -1.9648487217     1.6281451541
Bq        -2.5911606944    -1.5735042687     2.4386014261
Bq        -2.5876207387    -2.0083314388     1.5380944573
Bq        -2.5893907166    -1.7909178537     1.9883479417
Bq        -2.5895737799    -1.6573837441     2.0349162575
Bq        -2.5888657887    -1.7443491781     1.8548148638
Bq        -2.5899277754    -1.6139010270     2.1249669544
Bq        -2.5885117931    -1.7878318951     1.7647641669
Bq        -2.5902817710    -1.5704183100     2.2150176513
Bq        -2.5881577976    -1.8313146121     1.6747134700
Bq        -2.5906357666    -1.5269355930     2.3050683482
Bq        -2.5878038020    -1.8747973291     1.5846627731

1
2
3
4
5
6
7
8
9
10
11
12
13
14
15
16
17
18
19
20
21
22
23
24
25
26
27
28
29
30
31
32
33
34
35
36
37
38
39
40
41
42
43
44
45
46
47
48
49
50
51
52
53
54
55
56
57
58
59
60
61
62
63
64
65
66
67
68
69
70
71
72
73
74
75
76
77
78
79
80
81
82
83
84
85
86
87
88
89
90
91
92
93
94
95
96
97
98
99
100
101
102
103
104
105
106
107
108
109
110
111
112
113
114
115
116
117
118
119
120
121
122
123
124
125
126
127
128
129
130
131
132
133
134
135
136
137
138
139
140
141
142
143
144
145
146
147
148
149
150
151
152
153
154
155
156
157
158
159
160
161
162
163
164
165
166
167
168
169
170
171
172
173
174
175
176
177
178
179
180
181
182
183
184
185
186
187
188
189
190
191
192
193
194
195
196
197
198
199
200
201
202
203
204
205
206
207
208
209
210
211
212
213
214
215
216
217
218
219
220
221
222
223
224
225
226
227
228
229
230
231
232
233
234
235
236

