%nproc=8
%mem=1000MB
# rb3lyp/6-311+g** NMR geom=connectivity

Title

0 1
C    -4.0500558   -0.5771862    0.8136712
H    -5.0263804   -1.0082727    1.0024760
C    -3.9381552    0.6617804    0.2400876
H    -4.8252424    1.2338890   -0.0111295
C    -2.6768410    1.2433246    0.0057578
C    -1.4974121    0.5051527    0.2848253
C    -1.6508332   -0.7338728    0.9404026
H    -0.7713646   -1.2730967    1.2633753
C    -2.8898548   -1.2624035    1.1994307
H    -2.9683706   -2.2124563    1.7152676
C    -2.5773185    2.5963696   -0.4192930
H    -3.4870728    3.1412239   -0.6474055
C    -1.3741895    3.2147896   -0.4364030
H    -1.2997315    4.2742019   -0.6578144
C    -0.1719488    2.4994090   -0.1734588
C    -0.2043917    1.1018437    0.0192689
C     1.0513491    3.2042560   -0.0676222
H     1.0427344    4.2819499   -0.1896997
C     2.1942091    2.5487446    0.2579577
H     3.1168527    3.0912848    0.4334727
C     2.2216473    1.1336562    0.2934990
C     1.0486931    0.3945528    0.0302412
C     3.4483363    0.4614633    0.5573939
H     4.3095794    1.0606054    0.8334846
C     3.5427346   -0.8855926    0.4749463
H     4.4731467   -1.3939704    0.7038822
C     2.4490052   -1.6474447   -0.0196319
C     1.2150704   -1.0057258   -0.3013573
C     0.2531113   -1.7434440   -1.0216591
H    -0.6541356   -1.2535051   -1.3462847
C     0.4494193   -3.0628597   -1.3413779
H    -0.3083162   -3.5944309   -1.9054060
C     1.6251726   -3.7207967   -0.9552541
H     1.7670048   -4.7687404   -1.1927019
C     2.6109872   -3.0144177   -0.3183050
H     3.5525612   -3.4902813   -0.0646367
Bq         3.2490964993    -3.8649074762    -0.0618524925
Bq         2.9700641528    -4.0512170340     0.5525005805
Bq         3.2889582631    -3.8382918251    -0.1496172172
Bq         2.9302023890    -4.0778326851     0.6402653052
Bq         3.3288200269    -3.8116761740    -0.2373819419
Bq         3.1295112079    -3.9447544296     0.2014416816
Bq         3.0786429708    -3.8749770979     0.3134396568
Bq         3.1583664983    -3.8217457957     0.1379102074
Bq         3.0387812070    -3.9015927491     0.4012043815
Bq         3.1982282621    -3.7951301446     0.0501454827
Bq         2.9989194432    -3.9282084002     0.4889691062
Bq         3.2380900259    -3.7685144935    -0.0376192420
Bq         2.9590576794    -3.9548240513     0.5767338309
Bq         3.2779517897    -3.7418988424    -0.1253839668
Bq         2.9191959156    -3.9814397024     0.6644985557
Bq         3.3178135535    -3.7152831913    -0.2131486915
Bq         3.1185047346    -3.8483614468     0.2256749321
Bq         3.0676364974    -3.7785841152     0.3376729073
Bq         3.1473600250    -3.7253528130     0.1621434578
Bq         3.0277747336    -3.8051997663     0.4254376320
Bq         3.1872217888    -3.6987371619     0.0743787331
Bq         2.9879129698    -3.8318154174     0.5132023567
Bq         3.2270835526    -3.6721215108    -0.0133859916
Bq         2.9480512060    -3.8584310686     0.6009670814
Bq         3.2669453163    -3.6455058597    -0.1011507163
Bq         2.9081894423    -3.8850467197     0.6887318061
Bq         3.3068070801    -3.6188902086    -0.1889154410
Bq         3.1074982612    -3.7519684641     0.2499081825
Bq         3.0566300240    -3.6821911325     0.3619061577
Bq         3.1363535516    -3.6289598303     0.1863767083
Bq         3.0167682602    -3.7088067836     0.4496708824
Bq         3.1762153154    -3.6023441792     0.0986119836
Bq         2.9769064965    -3.7354224347     0.5374356071
Bq         3.2160770792    -3.5757285281     0.0108472589
Bq         2.9370447327    -3.7620380858     0.6252003319
Bq         3.2559388430    -3.5491128770    -0.0769174658
Bq         2.8971829689    -3.7886537369     0.7129650566
Bq         3.2958006068    -3.5224972259    -0.1646821906
Bq         3.0964917878    -3.6555754814     0.2741414330
Bq         3.0456235507    -3.5857981498     0.3861394082
Bq         3.1253470782    -3.5325668476     0.2106099588
Bq         3.0057617869    -3.6124138009     0.4739041329
Bq         3.1652088420    -3.5059511965     0.1228452340
Bq         2.9659000231    -3.6390294520     0.5616688576
Bq         3.2050706058    -3.4793355454     0.0350805093
Bq         2.9260382593    -3.6656451031     0.6494335823
Bq         3.2449323696    -3.4527198943    -0.0526842154
Bq         2.8861764955    -3.6922607542     0.7371983070
Bq         3.2847941334    -3.4261042432    -0.1404489401
Bq         3.0854853144    -3.5591824987     0.2983746835
Bq         3.0346170773    -3.4894051671     0.4103726586
Bq         3.1143406049    -3.4361738649     0.2348432092
Bq         2.9947553135    -3.5160208182     0.4981373833
Bq         3.1542023686    -3.4095582138     0.1470784845
Bq         2.9548935497    -3.5426364693     0.5859021081
Bq         3.1940641324    -3.3829425627     0.0593137598
Bq         2.9150317859    -3.5692521204     0.6736668328
Bq         3.2339258962    -3.3563269116    -0.0284509649
Bq         2.8751700221    -3.5958677715     0.7614315575
Bq         3.2737876600    -3.3297112605    -0.1162156896
Bq         3.0744788411    -3.4627895160     0.3226079339
Bq         3.0236106039    -3.3930121844     0.4346059091
Bq         3.1033341315    -3.3397808822     0.2590764597
Bq         2.9837488401    -3.4196278355     0.5223706338
Bq         3.1431958953    -3.3131652311     0.1713117350
Bq         2.9438870763    -3.4462434866     0.6101353585
Bq         3.1830576591    -3.2865495800     0.0835470102
Bq         2.9040253126    -3.4728591377     0.6979000832
Bq         3.2229194229    -3.2599339288    -0.0042177145
Bq         2.8641635488    -3.4994747888     0.7856648079
Bq         3.2627811866    -3.2333182777    -0.0919824392
Bq         3.0634723677    -3.3663965333     0.3468411844
Bq         3.0126041305    -3.2966192017     0.4588391596
Bq         3.0923276581    -3.2433878995     0.2833097101
Bq         2.9727423668    -3.3232348528     0.5466038843
Bq         3.1321894219    -3.2167722484     0.1955449854
Bq         2.9328806030    -3.3498505039     0.6343686090
Bq         3.1720511857    -3.1901565972     0.1077802607
Bq         2.8930188392    -3.3764661550     0.7221333337
Bq         3.2119129495    -3.1635409461     0.0200155360
Bq         2.8531570754    -3.4030818061     0.8098980584
Bq         3.2517747133    -3.1369252950    -0.0677491887
Bq         3.0524658943    -3.2700035506     0.3710744348
Bq         3.0015976572    -3.2002262190     0.4830724100
Bq         3.0813211847    -3.1469949167     0.3075429606
Bq         2.9617358934    -3.2268418701     0.5708371347
Bq         3.1211829485    -3.1203792656     0.2197782359
Bq         2.9218741296    -3.2534575212     0.6586018594
Bq         3.1610447123    -3.0937636145     0.1320135112
Bq         2.8820123658    -3.2800731723     0.7463665841
Bq         3.2009064761    -3.0671479634     0.0442487864
Bq         2.8421506020    -3.3066888234     0.8341313089
Bq         3.2407682399    -3.0405323123    -0.0435159383
Bq         3.0414594210    -3.1736105679     0.3953076853
Bq         2.9905911838    -3.1038332362     0.5073056605
Bq         3.0703147114    -3.0506019340     0.3317762110
Bq         2.9507294200    -3.1304488874     0.5950703852
Bq         3.1101764752    -3.0239862829     0.2440114863
Bq         2.9108676562    -3.1570645385     0.6828351099
Bq         3.1500382389    -2.9973706318     0.1562467616
Bq         2.8710058924    -3.1836801896     0.7705998346
Bq         3.1899000027    -2.9707549807     0.0684820369
Bq         2.8311441286    -3.2102958407     0.8583645593
Bq         3.2297617665    -2.9441393296    -0.0192826878
Bq         3.0304529476    -3.0772175851     0.4195409358
Bq         2.9795847104    -3.0074402535     0.5315389109
Bq         3.0593082380    -2.9542089513     0.3560094615
Bq         2.9397229466    -3.0340559046     0.6193036356
Bq         3.0991700018    -2.9275933002     0.2682447368
Bq         2.8998611829    -3.0606715558     0.7070683604
Bq         3.1390317656    -2.9009776491     0.1804800121
Bq         2.8599994191    -3.0872872069     0.7948330851
Bq         3.1788935294    -2.8743619980     0.0927152874
Bq         2.8201376553    -3.1139028580     0.8825978098
Bq         3.2187552932    -2.8477463469     0.0049505626
Bq         3.0194464742    -2.9808246024     0.4437741862
Bq         2.9685782371    -2.9110472708     0.5557721614
Bq         3.0483017646    -2.8578159686     0.3802427120
Bq         2.9287164733    -2.9376629219     0.6435368861
Bq         3.0881635284    -2.8312003175     0.2924779872
Bq         2.8888547095    -2.9642785730     0.7313016108
Bq         3.1280252922    -2.8045846664     0.2047132625
Bq         2.8489929457    -2.9908942241     0.8190663355
Bq         3.1678870560    -2.7779690153     0.1169485378
Bq         2.8091311819    -3.0175098753     0.9068310602
Bq         3.2077488198    -2.7513533642     0.0291838131
Bq         3.0084400008    -2.8844316197     0.4680074367
Bq         2.9575717637    -2.8146542881     0.5800054118
Bq         3.0372952913    -2.7614229859     0.4044759624
Bq         2.9177099999    -2.8412699392     0.6677701366
Bq         3.0771570550    -2.7348073348     0.3167112377
Bq         2.8778482361    -2.8678855903     0.7555348613
Bq         3.1170188188    -2.7081916837     0.2289465130
Bq         2.8379864723    -2.8945012414     0.8432995860
Bq         3.1568805826    -2.6815760326     0.1411817883
Bq         2.7981247085    -2.9211168925     0.9310643107
Bq         3.1967423464    -2.6549603815     0.0534170636
Bq         2.9974335275    -2.7880386370     0.4922406871
Bq         2.9465652903    -2.7182613054     0.6042386623
Bq         3.0262888179    -2.6650300032     0.4287092129
Bq         2.9067035265    -2.7448769565     0.6920033870
Bq         3.0661505817    -2.6384143521     0.3409444882
Bq         2.8668417627    -2.7714926076     0.7797681117
Bq         3.1060123455    -2.6117987010     0.2531797634
Bq         2.8269799989    -2.7981082587     0.8675328364
Bq         3.1458741092    -2.5851830499     0.1654150387
Bq         2.7871182352    -2.8247239098     0.9552975611
Bq         3.1857358730    -2.5585673988     0.0776503140
Bq         2.9864270541    -2.6916456543     0.5164739376
Bq         2.9355588169    -2.6218683227     0.6284719128
Bq         3.0152823445    -2.5686370205     0.4529424633
Bq         2.8956970531    -2.6484839738     0.7162366375
Bq         3.0551441083    -2.5420213694     0.3651777386
Bq         2.8558352894    -2.6750996249     0.8040013622
Bq         3.0950058721    -2.5154057183     0.2774130139
Bq         2.8159735256    -2.7017152760     0.8917660869
Bq         3.1348676359    -2.4887900672     0.1896482892
Bq         2.7761117618    -2.7283309271     0.9795308116
Bq         3.1747293997    -2.4621744160     0.1018835645
Bq         2.9754205807    -2.5952526716     0.5407071880
Bq         2.9245523436    -2.5254753400     0.6527051632
Bq         3.0042758711    -2.4722440378     0.4771757138
Bq         2.8846905798    -2.5520909911     0.7404698879
Bq         3.0441376349    -2.4456283867     0.3894109891
Bq         2.8448288160    -2.5787066422     0.8282346126
Bq         3.0839993987    -2.4190127355     0.3016462644
Bq         2.8049670522    -2.6053222933     0.9159993374
Bq         3.1238611625    -2.3923970844     0.2138815397
Bq         2.7651052884    -2.6319379444     1.0037640621
Bq         3.1637229263    -2.3657814333     0.1261168149
Bq         2.9644141074    -2.4988596889     0.5649404385
Bq         2.9135458702    -2.4290823573     0.6769384137
Bq         2.9932693978    -2.3758510550     0.5014089642
Bq         2.8736841064    -2.4556980084     0.7647031384
Bq         3.0331311616    -2.3492354039     0.4136442395
Bq         2.8338223426    -2.4823136595     0.8524678631
Bq         3.0729929253    -2.3226197528     0.3258795148
Bq         2.7939605788    -2.5089293106     0.9402325878
Bq         3.1128546891    -2.2960041017     0.2381147901
Bq         2.7540988150    -2.5355449617     1.0279973125
Bq         3.1527164529    -2.2693884506     0.1503500654
Bq         2.9534076340    -2.4024667062     0.5891736890
Bq         2.9025393968    -2.3326893746     0.7011716641
Bq         2.9822629244    -2.2794580723     0.5256422147
Bq         2.8626776330    -2.3593050257     0.7889363888
Bq         3.0221246882    -2.2528424212     0.4378774900
Bq         2.8228158692    -2.3859206768     0.8767011136
Bq         3.0619864520    -2.2262267701     0.3501127653
Bq         2.7829541055    -2.4125363279     0.9644658383
Bq         3.1018482158    -2.1996111190     0.2623480406
Bq         2.7430923417    -2.4391519790     1.0522305630
Bq         3.1417099795    -2.1729954679     0.1745833159
Bq         2.9424011606    -2.3060737234     0.6134069394
Bq         2.8915329234    -2.2362963918     0.7254049146
Bq         2.9712564510    -2.1830650896     0.5498754652
Bq         2.8516711597    -2.2629120429     0.8131696393
Bq         3.0111182148    -2.1564494385     0.4621107405
Bq         2.8118093959    -2.2895276941     0.9009343640
Bq         3.0509799786    -2.1298337874     0.3743460157
Bq         2.7719476321    -2.3161433452     0.9886990887

1
2
3
4
5
6
7
8
9
10
11
12
13
14
15
16
17
18
19
20
21
22
23
24
25
26
27
28
29
30
31
32
33
34
35
36
37
38
39
40
41
42
43
44
45
46
47
48
49
50
51
52
53
54
55
56
57
58
59
60
61
62
63
64
65
66
67
68
69
70
71
72
73
74
75
76
77
78
79
80
81
82
83
84
85
86
87
88
89
90
91
92
93
94
95
96
97
98
99
100
101
102
103
104
105
106
107
108
109
110
111
112
113
114
115
116
117
118
119
120
121
122
123
124
125
126
127
128
129
130
131
132
133
134
135
136
137
138
139
140
141
142
143
144
145
146
147
148
149
150
151
152
153
154
155
156
157
158
159
160
161
162
163
164
165
166
167
168
169
170
171
172
173
174
175
176
177
178
179
180
181
182
183
184
185
186
187
188
189
190
191
192
193
194
195
196
197
198
199
200
201
202
203
204
205
206
207
208
209
210
211
212
213
214
215
216
217
218
219
220
221
222
223
224
225
226
227
228
229
230
231
232
233
234
235
236

