%nproc=8
%mem=1000MB
# rb3lyp/6-311+g** NMR geom=connectivity

Title

0 1
C    -4.0500558   -0.5771862    0.8136712
H    -5.0263804   -1.0082727    1.0024760
C    -3.9381552    0.6617804    0.2400876
H    -4.8252424    1.2338890   -0.0111295
C    -2.6768410    1.2433246    0.0057578
C    -1.4974121    0.5051527    0.2848253
C    -1.6508332   -0.7338728    0.9404026
H    -0.7713646   -1.2730967    1.2633753
C    -2.8898548   -1.2624035    1.1994307
H    -2.9683706   -2.2124563    1.7152676
C    -2.5773185    2.5963696   -0.4192930
H    -3.4870728    3.1412239   -0.6474055
C    -1.3741895    3.2147896   -0.4364030
H    -1.2997315    4.2742019   -0.6578144
C    -0.1719488    2.4994090   -0.1734588
C    -0.2043917    1.1018437    0.0192689
C     1.0513491    3.2042560   -0.0676222
H     1.0427344    4.2819499   -0.1896997
C     2.1942091    2.5487446    0.2579577
H     3.1168527    3.0912848    0.4334727
C     2.2216473    1.1336562    0.2934990
C     1.0486931    0.3945528    0.0302412
C     3.4483363    0.4614633    0.5573939
H     4.3095794    1.0606054    0.8334846
C     3.5427346   -0.8855926    0.4749463
H     4.4731467   -1.3939704    0.7038822
C     2.4490052   -1.6474447   -0.0196319
C     1.2150704   -1.0057258   -0.3013573
C     0.2531113   -1.7434440   -1.0216591
H    -0.6541356   -1.2535051   -1.3462847
C     0.4494193   -3.0628597   -1.3413779
H    -0.3083162   -3.5944309   -1.9054060
C     1.6251726   -3.7207967   -0.9552541
H     1.7670048   -4.7687404   -1.1927019
C     2.6109872   -3.0144177   -0.3183050
H     3.5525612   -3.4902813   -0.0646367
Bq         0.5293450333     2.1310195967     0.6745068249
Bq         0.5807027619     2.1594749148     0.4833192767
Bq         0.5036661689     2.1167919377     0.7701005990
Bq         0.6063816262     2.1737025738     0.3877255026
Bq         0.4779873046     2.1025642787     0.8656943731
Bq         0.6320604906     2.1879302328     0.2921317285
Bq         0.4523084403     2.0883366196     0.9612881472
Bq         0.6577393549     2.2021578919     0.1965379544
Bq         0.4266295760     2.0741089606     1.0568819213
Bq         0.6834182192     2.2163855509     0.1009441803
Bq         0.5550238976     2.1452472558     0.5789130508
Bq         0.8104738101    -2.8181151051     0.0134226288
Bq         0.8618315387    -2.7896597870    -0.1777649194
Bq         0.7847949458    -2.8323427641     0.1090164029
Bq         0.8875104031    -2.7754321280    -0.2733586935
Bq         0.7591160814    -2.8465704231     0.2046101770
Bq         0.9131892674    -2.7612044690    -0.3689524676
Bq         0.7334372171    -2.8607980821     0.3002039510
Bq         0.9388681317    -2.7469768099    -0.4645462417
Bq         0.7077583528    -2.8750257412     0.3957977251
Bq         0.9645469960    -2.7327491509    -0.5601400158
Bq         0.8361526744    -2.8038874460    -0.0821711453
Bq         0.8067827595    -2.7191324110     0.0271631683
Bq         0.8581404882    -2.6906770930    -0.1640243799
Bq         0.7811038952    -2.7333600701     0.1227569424
Bq         0.8838193525    -2.6764494339    -0.2596181540
Bq         0.7554250309    -2.7475877291     0.2183507165
Bq         0.9094982168    -2.6622217749    -0.3552119281
Bq         0.7297461666    -2.7618153881     0.3139444906
Bq         0.9351770812    -2.6479941159    -0.4508057022
Bq         0.7040673023    -2.7760430471     0.4095382647
Bq         0.9608559455    -2.6337664569    -0.5463994762
Bq         0.8324616239    -2.7049047520    -0.0684306058
Bq         0.8030917090    -2.6201497170     0.0409037079
Bq         0.8544494377    -2.5916943989    -0.1502838403
Bq         0.7774128447    -2.6343773760     0.1364974820
Bq         0.8801283020    -2.5774667399    -0.2458776144
Bq         0.7517339804    -2.6486050350     0.2320912561
Bq         0.9058071663    -2.5632390809    -0.3414713885
Bq         0.7260551160    -2.6628326941     0.3276850302
Bq         0.9314860306    -2.5490114219    -0.4370651626
Bq         0.7003762517    -2.6770603531     0.4232788043
Bq         0.9571648949    -2.5347837628    -0.5326589367
Bq         0.8287705733    -2.6059220580    -0.0546900662
Bq         0.7994006585    -2.5211670230     0.0546442474
Bq         0.8507583871    -2.4927117049    -0.1365433008
Bq         0.7737217942    -2.5353946820     0.1502380215
Bq         0.8764372514    -2.4784840459    -0.2321370748
Bq         0.7480429298    -2.5496223410     0.2458317956
Bq         0.9021161158    -2.4642563868    -0.3277308489
Bq         0.7223640655    -2.5638500000     0.3414255697
Bq         0.9277949801    -2.4500287278    -0.4233246230
Bq         0.6966852012    -2.5780776591     0.4370193438
Bq         0.9534738444    -2.4358010688    -0.5189183971
Bq         0.8250795228    -2.5069393639    -0.0409495267
Bq         0.7957096079    -2.4221843289     0.0683847870
Bq         0.8470673366    -2.3937290109    -0.1228027612
Bq         0.7700307436    -2.4364119879     0.1639785611
Bq         0.8727462009    -2.3795013518    -0.2183965353
Bq         0.7443518793    -2.4506396470     0.2595723352
Bq         0.8984250652    -2.3652736928    -0.3139903094
Bq         0.7186730150    -2.4648673060     0.3551661093
Bq         0.9241039296    -2.3510460338    -0.4095840835
Bq         0.6929941507    -2.4790949650     0.4507598834
Bq         0.9497827939    -2.3368183748    -0.5051778576
Bq         0.8213884723    -2.4079566699    -0.0272089871
Bq         0.7920185574    -2.3232016349     0.0821253266
Bq         0.8433762861    -2.2947463168    -0.1090622216
Bq         0.7663396931    -2.3374292939     0.1777191007
Bq         0.8690551504    -2.2805186578    -0.2046559957
Bq         0.7406608288    -2.3516569529     0.2733128747
Bq         0.8947340147    -2.2662909988    -0.3002497698
Bq         0.7149819644    -2.3658846120     0.3689066488
Bq         0.9204128790    -2.2520633397    -0.3958435439
Bq         0.6893031001    -2.3801122710     0.4645004229
Bq         0.9460917433    -2.2378356807    -0.4914373180
Bq         0.8176974217    -2.3089739759    -0.0134684475
Bq         0.7883275069    -2.2242189408     0.0958658661
Bq         0.8396852355    -2.1957636228    -0.0953216821
Bq         0.7626486425    -2.2384465999     0.1914596402
Bq         0.8653640998    -2.1815359638    -0.1909154562
Bq         0.7369697782    -2.2526742589     0.2870534143
Bq         0.8910429642    -2.1673083047    -0.2865092303
Bq         0.7112909139    -2.2669019179     0.3826471884
Bq         0.9167218285    -2.1530806457    -0.3821030044
Bq         0.6856120496    -2.2811295770     0.4782409625
Bq         0.9424006928    -2.1388529867    -0.4776967785
Bq         0.8140063712    -2.2099912818     0.0002720920
Bq         0.7846364563    -2.1252362468     0.1096064057
Bq         0.8359941850    -2.0967809288    -0.0815811425
Bq         0.7589575920    -2.1394639058     0.2052001798
Bq         0.8616730493    -2.0825532697    -0.1771749166
Bq         0.7332787277    -2.1536915649     0.3007939539
Bq         0.8873519136    -2.0683256107    -0.2727686907
Bq         0.7075998634    -2.1679192239     0.3963877280
Bq         0.9130307779    -2.0540979517    -0.3683624648
Bq         0.6819209990    -2.1821468829     0.4919815021
Bq         0.9387096423    -2.0398702926    -0.4639562389
Bq         0.8103153207    -2.1110085878     0.0140126316
Bq         0.7809454058    -2.0262535528     0.1233469452
Bq         0.8323031344    -1.9977982347    -0.0678406030
Bq         0.7552665415    -2.0404812118     0.2189407193
Bq         0.8579819988    -1.9835705757    -0.1634343771
Bq         0.7295876772    -2.0547088708     0.3145344934
Bq         0.8836608631    -1.9693429167    -0.2590281511
Bq         0.7039088128    -2.0689365299     0.4101282675
Bq         0.9093397274    -1.9551152576    -0.3546219252
Bq         0.6782299485    -2.0831641889     0.5057220416
Bq         0.9350185917    -1.9408875986    -0.4502156993
Bq         0.8066242701    -2.0120258937     0.0277531711
Bq         0.7772543553    -1.9272708587     0.1370874848
Bq         0.8286120839    -1.8988155407    -0.0541000634
Bq         0.7515754909    -1.9414985178     0.2326812589
Bq         0.8542909482    -1.8845878817    -0.1496938375
Bq         0.7258966266    -1.9557261768     0.3282750330
Bq         0.8799698126    -1.8703602226    -0.2452876116
Bq         0.7002177623    -1.9699538358     0.4238688071
Bq         0.9056486769    -1.8561325636    -0.3408813857
Bq         0.6745388980    -1.9841814949     0.5194625812
Bq         0.9313275412    -1.8419049046    -0.4364751598
Bq         0.8029332196    -1.9130431997     0.0414937107
Bq         0.7735633047    -1.8282881647     0.1508280244
Bq         0.8249210334    -1.7998328466    -0.0403595238
Bq         0.7478844404    -1.8425158237     0.2464217984
Bq         0.8505998977    -1.7856051876    -0.1359532979
Bq         0.7222055761    -1.8567434828     0.3420155725
Bq         0.8762787620    -1.7713775286    -0.2315470720
Bq         0.6965267118    -1.8709711418     0.4376093466
Bq         0.9019576263    -1.7571498696    -0.3271408461
Bq         0.6708478474    -1.8851988008     0.5332031207
Bq         0.9276364907    -1.7429222105    -0.4227346202
Bq         0.7992421691    -1.8140605057     0.0552342503
Bq         0.7698722542    -1.7293054707     0.1645685639
Bq         0.8212299828    -1.7008501526    -0.0266189843
Bq         0.7441933899    -1.7435331297     0.2601623380
Bq         0.8469088472    -1.6866224936    -0.1222127584
Bq         0.7185145256    -1.7577607887     0.3557561121
Bq         0.8725877115    -1.6723948346    -0.2178065325
Bq         0.6928356612    -1.7719884478     0.4513498862
Bq         0.8982665758    -1.6581671755    -0.3134003066
Bq         0.6671567969    -1.7862161068     0.5469436603
Bq         0.9239454401    -1.6439395165    -0.4089940807
Bq         0.7955511185    -1.7150778116     0.0689747898
Bq         0.7661812037    -1.6303227766     0.1783091035
Bq         0.8175389323    -1.6018674586    -0.0128784447
Bq         0.7405023393    -1.6445504357     0.2739028776
Bq         0.8432177966    -1.5876397995    -0.1084722188
Bq         0.7148234750    -1.6587780947     0.3694966517
Bq         0.8688966610    -1.5734121405    -0.2040659929
Bq         0.6891446107    -1.6730057537     0.4650904258
Bq         0.8945755253    -1.5591844815    -0.2996597670
Bq         0.6634657464    -1.6872334127     0.5606841998
Bq         0.9202543896    -1.5449568225    -0.3952535411
Bq         0.7918600680    -1.6160951176     0.0827153294
Bq         0.7624901531    -1.5313400826     0.1920496430
Bq         0.8138478818    -1.5028847645     0.0008620948
Bq         0.7368112888    -1.5455677416     0.2876434171
Bq         0.8395267461    -1.4886571055    -0.0947316793
Bq         0.7111324245    -1.5597954007     0.3832371912
Bq         0.8652056104    -1.4744294465    -0.1903254534
Bq         0.6854535602    -1.5740230597     0.4788309653
Bq         0.8908844747    -1.4602017875    -0.2859192274
Bq         0.6597746958    -1.5882507187     0.5744247394
Bq         0.9165633391    -1.4459741284    -0.3815130015
Bq         0.7881690174    -1.5171124236     0.0964558689
Bq         0.7587991026    -1.4323573886     0.2057901826
Bq         0.8101568312    -1.4039020705     0.0146026344
Bq         0.7331202383    -1.4465850476     0.3013839567
Bq         0.8358356956    -1.3896744115    -0.0809911397
Bq         0.7074413739    -1.4608127066     0.3969777308
Bq         0.8615145599    -1.3754467524    -0.1765849138
Bq         0.6817625096    -1.4750403656     0.4925715049
Bq         0.8871934242    -1.3612190934    -0.2721786879
Bq         0.6560836453    -1.4892680247     0.5881652790
Bq         0.9128722885    -1.3469914344    -0.3677724620
Bq         0.7844779669    -1.4181297295     0.1101964085
Bq         0.7551080521    -1.3333746945     0.2195307221
Bq         0.8064657807    -1.3049193765     0.0283431740
Bq         0.7294291877    -1.3476023536     0.3151244962
Bq         0.8321446450    -1.2906917174    -0.0672506001
Bq         0.7037503234    -1.3618300126     0.4107182703
Bq         0.8578235093    -1.2764640584    -0.1628443742
Bq         0.6780714591    -1.3760576716     0.5063120444
Bq         0.8835023737    -1.2622363994    -0.2584381483
Bq         0.6523925948    -1.3902853306     0.6019058185
Bq         0.9091812380    -1.2480087404    -0.3540319224
Bq         0.7807869164    -1.3191470355     0.1239369481
Bq         0.7514170015    -1.2343920005     0.2332712617
Bq         0.8027747302    -1.2059366824     0.0420837135
Bq         0.7257381372    -1.2486196595     0.3288650358
Bq         0.8284535945    -1.1917090234    -0.0535100606
Bq         0.7000592729    -1.2628473185     0.4244588099
Bq         0.8541324588    -1.1774813644    -0.1491038347
Bq         0.6743804086    -1.2770749776     0.5200525840
Bq         0.8798113231    -1.1632537054    -0.2446976088
Bq         0.6487015442    -1.2913026366     0.6156463581
Bq         0.9054901875    -1.1490260463    -0.3402913829
Bq         0.7770958658    -1.2201643415     0.1376774876
Bq         0.7477259510    -1.1354093065     0.2470118013
Bq         0.7990836796    -1.1069539884     0.0558242531

1
2
3
4
5
6
7
8
9
10
11
12
13
14
15
16
17
18
19
20
21
22
23
24
25
26
27
28
29
30
31
32
33
34
35
36
37
38
39
40
41
42
43
44
45
46
47
48
49
50
51
52
53
54
55
56
57
58
59
60
61
62
63
64
65
66
67
68
69
70
71
72
73
74
75
76
77
78
79
80
81
82
83
84
85
86
87
88
89
90
91
92
93
94
95
96
97
98
99
100
101
102
103
104
105
106
107
108
109
110
111
112
113
114
115
116
117
118
119
120
121
122
123
124
125
126
127
128
129
130
131
132
133
134
135
136
137
138
139
140
141
142
143
144
145
146
147
148
149
150
151
152
153
154
155
156
157
158
159
160
161
162
163
164
165
166
167
168
169
170
171
172
173
174
175
176
177
178
179
180
181
182
183
184
185
186
187
188
189
190
191
192
193
194
195
196
197
198
199
200
201
202
203
204
205
206
207
208
209
210
211
212
213
214
215
216
217
218
219
220
221
222
223
224
225
226
227
228
229
230
231
232
233
234
235
236

