%nproc=8
%mem=1000MB
# rb3lyp/6-311+g** NMR geom=connectivity

Title

0 1
C    -4.0500558   -0.5771862    0.8136712
H    -5.0263804   -1.0082727    1.0024760
C    -3.9381552    0.6617804    0.2400876
H    -4.8252424    1.2338890   -0.0111295
C    -2.6768410    1.2433246    0.0057578
C    -1.4974121    0.5051527    0.2848253
C    -1.6508332   -0.7338728    0.9404026
H    -0.7713646   -1.2730967    1.2633753
C    -2.8898548   -1.2624035    1.1994307
H    -2.9683706   -2.2124563    1.7152676
C    -2.5773185    2.5963696   -0.4192930
H    -3.4870728    3.1412239   -0.6474055
C    -1.3741895    3.2147896   -0.4364030
H    -1.2997315    4.2742019   -0.6578144
C    -0.1719488    2.4994090   -0.1734588
C    -0.2043917    1.1018437    0.0192689
C     1.0513491    3.2042560   -0.0676222
H     1.0427344    4.2819499   -0.1896997
C     2.1942091    2.5487446    0.2579577
H     3.1168527    3.0912848    0.4334727
C     2.2216473    1.1336562    0.2934990
C     1.0486931    0.3945528    0.0302412
C     3.4483363    0.4614633    0.5573939
H     4.3095794    1.0606054    0.8334846
C     3.5427346   -0.8855926    0.4749463
H     4.4731467   -1.3939704    0.7038822
C     2.4490052   -1.6474447   -0.0196319
C     1.2150704   -1.0057258   -0.3013573
C     0.2531113   -1.7434440   -1.0216591
H    -0.6541356   -1.2535051   -1.3462847
C     0.4494193   -3.0628597   -1.3413779
H    -0.3083162   -3.5944309   -1.9054060
C     1.6251726   -3.7207967   -0.9552541
H     1.7670048   -4.7687404   -1.1927019
C     2.6109872   -3.0144177   -0.3183050
H     3.5525612   -3.4902813   -0.0646367
Bq         2.1792497163     1.8579650824     1.1378174638
Bq         2.2950573406     1.8186572017     0.3472205471
Bq         2.1647737632     1.8628785675     1.2366420784
Bq         2.3095332937     1.8137437167     0.2483959325
Bq         2.2371535284     1.8383111421     0.7425190055
Bq         2.2233897093     1.9431038425     0.8364820153
Bq         2.2523416154     1.9332768724     0.6388327861
Bq         2.2089137563     1.9480173276     0.9353066299
Bq         2.2668175685     1.9283633873     0.5400081715
Bq         2.1944378033     1.9529308127     1.0341312445
Bq         2.2812935215     1.9234499022     0.4411835570
Bq         2.1799618502     1.9578442978     1.1329558590
Bq         2.2957694746     1.9185364171     0.3423589424
Bq         2.1654858972     1.9627577829     1.2317804736
Bq         2.3102454276     1.9136229320     0.2435343278
Bq         2.2378656624     1.9381903575     0.7376574007
Bq         2.2241018433     2.0429830579     0.8316204105
Bq         2.2530537494     2.0331560878     0.6339711814
Bq         2.2096258902     2.0478965430     0.9304450251
Bq         2.2675297024     2.0282426027     0.5351465668
Bq         2.1951499372     2.0528100281     1.0292696397
Bq         2.2820056555     2.0233291176     0.4363219522
Bq         2.1806739841     2.0577235132     1.1280942543
Bq         2.2964816085     2.0184156325     0.3374973376
Bq         2.1661980311     2.0626369982     1.2269188689
Bq         2.3109575615     2.0135021474     0.2386727230
Bq         2.2385777963     2.0380695728     0.7327957959
Bq         2.2248139772     2.1428622733     0.8267588058
Bq         2.2537658833     2.1330353031     0.6291095766
Bq         2.2103380242     2.1477757584     0.9255834203
Bq         2.2682418364     2.1281218180     0.5302849620
Bq         2.1958620711     2.1526892435     1.0244080349
Bq         2.2827177894     2.1232083330     0.4314603474
Bq         2.1813861181     2.1576027285     1.1232326495
Bq         2.2971937424     2.1182948479     0.3326357328
Bq         2.1669101650     2.1625162136     1.2220572641
Bq         2.3116696955     2.1133813628     0.2338111182
Bq         2.2392899303     2.1379487882     0.7279341912
Bq         2.2255261112     2.2427414887     0.8218972010
Bq         2.2544780173     2.2329145185     0.6242479718
Bq         2.2110501581     2.2476549738     0.9207218156
Bq         2.2689539703     2.2280010334     0.5254233572
Bq         2.1965742051     2.2525684588     1.0195464302
Bq         2.2834299233     2.2230875483     0.4265987427
Bq         2.1820982520     2.2574819439     1.1183710447
Bq         2.2979058764     2.2181740633     0.3277741281
Bq         2.1676222990     2.2623954290     1.2171956593
Bq         2.3123818294     2.2132605782     0.2289495135
Bq         2.2400020642     2.2378280036     0.7230725864
Bq         2.2262382451     2.3426207040     0.8170355962
Bq         2.2551901512     2.3327937339     0.6193863671
Bq         2.2117622921     2.3475341891     0.9158602108
Bq         2.2696661042     2.3278802488     0.5205617525
Bq         2.1972863390     2.3524476742     1.0146848254
Bq         2.2841420573     2.3229667637     0.4217371379
Bq         2.1828103860     2.3573611593     1.1135094400
Bq         2.2986180103     2.3180532786     0.3229125233
Bq         2.1683344329     2.3622746444     1.2123340546
Bq         2.3130939634     2.3131397936     0.2240879087
Bq         2.2407141982     2.3377072190     0.7182109816
Bq         2.2269503790     2.4424999194     0.8121739915
Bq         2.2559022851     2.4326729493     0.6145247623
Bq         2.2124744260     2.4474134045     0.9109986060
Bq         2.2703782382     2.4277594642     0.5157001477
Bq         2.1979984730     2.4523268896     1.0098232206
Bq         2.2848541912     2.4228459791     0.4168755331
Bq         2.1835225199     2.4572403747     1.1086478352
Bq         2.2993301443     2.4179324940     0.3180509185
Bq         2.1690465669     2.4621538598     1.2074724498
Bq         2.3138060973     2.4130190089     0.2192263039
Bq         2.2414263321     2.4375864343     0.7133493769
Bq         2.2276625130     2.5423791348     0.8073123867
Bq         2.2566144191     2.5325521646     0.6096631575
Bq         2.2131865599     2.5472926199     0.9061370013
Bq         2.2710903721     2.5276386796     0.5108385429
Bq         2.1987106069     2.5522061050     1.0049616159
Bq         2.2855663252     2.5227251945     0.4120139284
Bq         2.1842346539     2.5571195900     1.1037862304
Bq         2.3000422782     2.5178117094     0.3131893138
Bq         2.1697587008     2.5620330751     1.2026108450
Bq         2.3145182313     2.5128982243     0.2143646992
Bq         2.2421384660     2.5374656497     0.7084877721
Bq         2.2283746469     2.6422583502     0.8024507819
Bq         2.2573265530     2.6324313800     0.6048015528
Bq         2.2138986939     2.6471718353     0.9012753965
Bq         2.2718025061     2.6275178949     0.5059769382
Bq         2.1994227408     2.6520853203     1.0001000111
Bq         2.2862784591     2.6226044098     0.4071523236
Bq         2.1849467878     2.6569988054     1.0989246257
Bq         2.3007544122     2.6176909248     0.3083277090
Bq         2.1704708348     2.6619122905     1.1977492403
Bq         2.3152303652     2.6127774397     0.2095030944
Bq         2.2428506000     2.6373448651     0.7036261673
Bq         2.2290867809     2.7421375656     0.7975891772
Bq         2.2580386870     2.7323105954     0.5999399480
Bq         2.2146108278     2.7470510506     0.8964137917
Bq         2.2725146400     2.7273971103     0.5011153334
Bq         2.2001348748     2.7519645357     0.9952384063
Bq         2.2869905931     2.7224836252     0.4022907188
Bq         2.1856589217     2.7568780208     1.0940630209
Bq         2.3014665461     2.7175701401     0.3034661042
Bq         2.1711829687     2.7617915059     1.1928876355
Bq         2.3159424991     2.7126566551     0.2046414897
Bq         2.2435627339     2.7372240805     0.6987645626
Bq         2.2297989148     2.8420167809     0.7927275724
Bq         2.2587508209     2.8321898108     0.5950783432
Bq         2.2153229618     2.8469302660     0.8915521870
Bq         2.2732267739     2.8272763257     0.4962537286
Bq         2.2008470087     2.8518437511     0.9903768016
Bq         2.2877027270     2.8223628406     0.3974291141
Bq         2.1863710557     2.8567572362     1.0892014161
Bq         2.3021786800     2.8174493555     0.2986044995
Bq         2.1718951026     2.8616707213     1.1880260307
Bq         2.3166546331     2.8125358704     0.1997798849
Bq         2.2442748679     2.8371032959     0.6939029578
Bq         2.2305110488     2.9418959963     0.7878659676
Bq         2.2594629548     2.9320690261     0.5902167385
Bq         2.2160350957     2.9468094814     0.8866905822
Bq         2.2739389079     2.9271555411     0.4913921239
Bq         2.2015591427     2.9517229665     0.9855151968
Bq         2.2884148609     2.9222420560     0.3925675093
Bq         2.1870831896     2.9566364516     1.0843398114
Bq         2.3028908140     2.9173285709     0.2937428947
Bq         2.1726072366     2.9615499366     1.1831644260
Bq         2.3173667670     2.9124150858     0.1949182801
Bq         2.2449870018     2.9369825112     0.6890413530
Bq         2.2312231827     3.0417752117     0.7830043629
Bq         2.2601750888     3.0319482415     0.5853551337
Bq         2.2167472297     3.0466886968     0.8818289774
Bq         2.2746510418     3.0270347564     0.4865305191
Bq         2.2022712766     3.0516021819     0.9806535920
Bq         2.2891269949     3.0221212714     0.3877059045
Bq         2.1877953236     3.0565156669     1.0794782066
Bq         2.3036029479     3.0172077863     0.2888812899
Bq         2.1733193705     3.0614291520     1.1783028212
Bq         2.3180789010     3.0122943012     0.1900566754
Bq         2.2456991357     3.0368617266     0.6841797483
Bq         2.2319353166     3.1416544271     0.7781427581
Bq         2.2608872227     3.1318274569     0.5804935289
Bq         2.2174593636     3.1465679121     0.8769673727
Bq         2.2753631758     3.1269139718     0.4816689143
Bq         2.2029834106     3.1514813972     0.9757919873
Bq         2.2898391288     3.1220004867     0.3828442998
Bq         2.1885074575     3.1563948823     1.0746166018
Bq         2.3043150819     3.1170870017     0.2840196852
Bq         2.1740315045     3.1613083674     1.1734412164
Bq         2.3187910349     3.1121735166     0.1851950706
Bq         2.2464112697     3.1367409420     0.6793181435
Bq         2.2326474506     3.2415336424     0.7732811533
Bq         2.2615993567     3.2317066723     0.5756319242
Bq         2.2181714975     3.2464471275     0.8721057679
Bq         2.2760753097     3.2267931872     0.4768073096
Bq         2.2036955445     3.2513606126     0.9709303825
Bq         2.2905512628     3.2218797021     0.3779826950
Bq         2.1892195914     3.2562740977     1.0697549971
Bq         2.3050272158     3.2169662170     0.2791580804
Bq         2.1747436384     3.2611875828     1.1685796117
Bq         2.3195031688     3.2120527319     0.1803334658
Bq         2.2471234036     3.2366201574     0.6744565387
Bq         2.2333595845     3.3414128578     0.7684195486
Bq         2.2623114906     3.3315858877     0.5707703194
Bq         2.2188836315     3.3463263429     0.8672441631
Bq         2.2767874437     3.3266724026     0.4719457048
Bq         2.2044076784     3.3512398280     0.9660687777
Bq         2.2912633967     3.3217589175     0.3731210902
Bq         2.1899317254     3.3561533131     1.0648933923
Bq         2.3057393497     3.3168454324     0.2742964756
Bq         2.1754557723     3.3610667981     1.1637180069
Bq         2.3202153028     3.3119319473     0.1754718611
Bq         2.2478355376     3.3364993727     0.6695949340
Bq         2.2340717185     3.4412920732     0.7635579438
Bq         2.2630236246     3.4314651030     0.5659087146
Bq         2.2195957654     3.4462055583     0.8623825584
Bq         2.2774995776     3.4265516179     0.4670841000
Bq         2.2051198124     3.4511190434     0.9612071730
Bq         2.2919755306     3.4216381329     0.3682594855
Bq         2.1906438593     3.4560325284     1.0600317875
Bq         2.3064514837     3.4167246478     0.2694348709
Bq         2.1761679063     3.4609460135     1.1588564021
Bq         2.3209274367     3.4118111627     0.1706102563
Bq         2.2485476715     3.4363785881     0.6647333292
Bq         2.2347838524     3.5411712886     0.7586963390
Bq         2.2637357585     3.5313443184     0.5610471099
Bq         2.2203078994     3.5460847737     0.8575209536
Bq         2.2782117115     3.5264308333     0.4622224953
Bq         2.2058319463     3.5509982587     0.9563455682
Bq         2.2926876646     3.5215173482     0.3633978807
Bq         2.1913559933     3.5559117438     1.0551701828
Bq         2.3071636176     3.5166038632     0.2645732661
Bq         2.1768800402     3.5608252289     1.1539947974
Bq         2.3216395707     3.5116903781     0.1657486515
Bq         2.2492598055     3.5362578035     0.6598717244
Bq         2.2354959863     3.6410505039     0.7538347343
Bq         2.2644478924     3.6312235338     0.5561855051
Bq         2.2210200333     3.6459639890     0.8526593488
Bq         2.2789238455     3.6263100487     0.4573608905
Bq         2.2065440803     3.6508774741     0.9514839634
Bq         2.2933997985     3.6213965636     0.3585362759
Bq         2.1920681272     3.6557909592     1.0503085780
Bq         2.3078757516     3.6164830785     0.2597116613

1
2
3
4
5
6
7
8
9
10
11
12
13
14
15
16
17
18
19
20
21
22
23
24
25
26
27
28
29
30
31
32
33
34
35
36
37
38
39
40
41
42
43
44
45
46
47
48
49
50
51
52
53
54
55
56
57
58
59
60
61
62
63
64
65
66
67
68
69
70
71
72
73
74
75
76
77
78
79
80
81
82
83
84
85
86
87
88
89
90
91
92
93
94
95
96
97
98
99
100
101
102
103
104
105
106
107
108
109
110
111
112
113
114
115
116
117
118
119
120
121
122
123
124
125
126
127
128
129
130
131
132
133
134
135
136
137
138
139
140
141
142
143
144
145
146
147
148
149
150
151
152
153
154
155
156
157
158
159
160
161
162
163
164
165
166
167
168
169
170
171
172
173
174
175
176
177
178
179
180
181
182
183
184
185
186
187
188
189
190
191
192
193
194
195
196
197
198
199
200
201
202
203
204
205
206
207
208
209
210
211
212
213
214
215
216
217
218
219
220
221
222
223
224
225
226
227
228
229
230
231
232
233
234
235
236

