%nproc=8
%mem=1000MB
# rb3lyp/6-311+g** NMR geom=connectivity

Title

0 1
C    -4.0500558   -0.5771862    0.8136712
H    -5.0263804   -1.0082727    1.0024760
C    -3.9381552    0.6617804    0.2400876
H    -4.8252424    1.2338890   -0.0111295
C    -2.6768410    1.2433246    0.0057578
C    -1.4974121    0.5051527    0.2848253
C    -1.6508332   -0.7338728    0.9404026
H    -0.7713646   -1.2730967    1.2633753
C    -2.8898548   -1.2624035    1.1994307
H    -2.9683706   -2.2124563    1.7152676
C    -2.5773185    2.5963696   -0.4192930
H    -3.4870728    3.1412239   -0.6474055
C    -1.3741895    3.2147896   -0.4364030
H    -1.2997315    4.2742019   -0.6578144
C    -0.1719488    2.4994090   -0.1734588
C    -0.2043917    1.1018437    0.0192689
C     1.0513491    3.2042560   -0.0676222
H     1.0427344    4.2819499   -0.1896997
C     2.1942091    2.5487446    0.2579577
H     3.1168527    3.0912848    0.4334727
C     2.2216473    1.1336562    0.2934990
C     1.0486931    0.3945528    0.0302412
C     3.4483363    0.4614633    0.5573939
H     4.3095794    1.0606054    0.8334846
C     3.5427346   -0.8855926    0.4749463
H     4.4731467   -1.3939704    0.7038822
C     2.4490052   -1.6474447   -0.0196319
C     1.2150704   -1.0057258   -0.3013573
C     0.2531113   -1.7434440   -1.0216591
H    -0.6541356   -1.2535051   -1.3462847
C     0.4494193   -3.0628597   -1.3413779
H    -0.3083162   -3.5944309   -1.9054060
C     1.6251726   -3.7207967   -0.9552541
H     1.7670048   -4.7687404   -1.1927019
C     2.6109872   -3.0144177   -0.3183050
H     3.5525612   -3.4902813   -0.0646367
Bq         1.9520804538    -3.7152831913    -0.8334495059
Bq         1.7527716349    -3.8483614468    -0.3946258823
Bq         1.7019033977    -3.7785841152    -0.2826279072
Bq         1.7816269253    -3.7253528130    -0.4581573566
Bq         1.6620416339    -3.8051997663    -0.1948631825
Bq         1.8214886891    -3.6987371619    -0.5459220813
Bq         1.6221798701    -3.8318154174    -0.1070984577
Bq         1.8613504528    -3.6721215108    -0.6336868060
Bq         1.5823181063    -3.8584310686    -0.0193337330
Bq         1.9012122166    -3.6455058597    -0.7214515307
Bq         1.5424563425    -3.8850467197     0.0684309917
Bq         1.9410739804    -3.6188902086    -0.8092162554
Bq         1.7417651615    -3.7519684641    -0.3703926319
Bq         1.6908969243    -3.6821911325    -0.2583946567
Bq         1.7706204519    -3.6289598303    -0.4339241061
Bq         1.6510351605    -3.7088067836    -0.1706299320
Bq         1.8104822157    -3.6023441792    -0.5216888308
Bq         1.6111733968    -3.7354224347    -0.0828652073
Bq         1.8503439795    -3.5757285281    -0.6094535556
Bq         1.5713116330    -3.7620380858     0.0048995174
Bq         1.8902057433    -3.5491128770    -0.6972182803
Bq         1.5314498692    -3.7886537369     0.0926642421
Bq         1.9300675071    -3.5224972259    -0.7849830050
Bq         1.7307586881    -3.6555754814    -0.3461593814
Bq         1.6798904510    -3.5857981498    -0.2341614062
Bq         1.7596139785    -3.5325668476    -0.4096908557
Bq         1.6400286872    -3.6124138009    -0.1463966815
Bq         1.7994757423    -3.5059511965    -0.4974555804
Bq         1.6001669234    -3.6390294520    -0.0586319568
Bq         1.8393375061    -3.4793355454    -0.5852203051
Bq         1.5603051596    -3.6656451031     0.0291327679
Bq         1.8791992699    -3.4527198943    -0.6729850298
Bq         1.5204433958    -3.6922607542     0.1168974926
Bq         1.9190610337    -3.4261042432    -0.7607497545
Bq         1.7197522147    -3.5591824987    -0.3219261310
Bq         1.6688839776    -3.4894051671    -0.2099281558
Bq         1.7486075052    -3.4361738649    -0.3854576052
Bq         1.6290222138    -3.5160208182    -0.1221634311
Bq         1.7884692689    -3.4095582138    -0.4732223299
Bq         1.5891604500    -3.5426364693    -0.0343987064
Bq         1.8283310327    -3.3829425627    -0.5609870546
Bq         1.5492986862    -3.5692521204     0.0533660183
Bq         1.8681927965    -3.3563269116    -0.6487517794
Bq         1.5094369224    -3.5958677715     0.1411307431
Bq         1.9080545603    -3.3297112605    -0.7365165041
Bq         1.7087457414    -3.4627895160    -0.2976928805
Bq         1.6578775042    -3.3930121844    -0.1856949053
Bq         1.7376010318    -3.3397808822    -0.3612243548
Bq         1.6180157404    -3.4196278355    -0.0979301806
Bq         1.7774627956    -3.3131652311    -0.4489890795
Bq         1.5781539766    -3.4462434866    -0.0101654559
Bq         1.8173245594    -3.2865495800    -0.5367538042
Bq         1.5382922128    -3.4728591377     0.0775992688
Bq         1.8571863231    -3.2599339288    -0.6245185289
Bq         1.4984304491    -3.4994747888     0.1653639935
Bq         1.8970480869    -3.2333182777    -0.7122832536
Bq         1.6977392680    -3.3663965333    -0.2734596300
Bq         1.6468710308    -3.2966192017    -0.1614616549
Bq         1.7265945584    -3.2433878995    -0.3369911043
Bq         1.6070092671    -3.3232348528    -0.0736969302
Bq         1.7664563222    -3.2167722484    -0.4247558290
Bq         1.5671475033    -3.3498505039     0.0140677946
Bq         1.8063180860    -3.1901565972    -0.5125205537
Bq         1.5272857395    -3.3764661550     0.1018325193
Bq         1.8461798498    -3.1635409461    -0.6002852784
Bq         1.4874239757    -3.4030818061     0.1895972440
Bq         1.8860416136    -3.1369252950    -0.6880500032
Bq         1.6867327946    -3.2700035506    -0.2492263796
Bq         1.6358645575    -3.2002262190    -0.1372284044
Bq         1.7155880850    -3.1469949167    -0.3127578538
Bq         1.5960027937    -3.2268418701    -0.0494636797
Bq         1.7554498488    -3.1203792656    -0.4005225786
Bq         1.5561410299    -3.2534575212     0.0383010450
Bq         1.7953116126    -3.0937636145    -0.4882873033
Bq         1.5162792661    -3.2800731723     0.1260657697
Bq         1.8351733764    -3.0671479634    -0.5760520280
Bq         1.4764175023    -3.3066888234     0.2138304944
Bq         1.8750351402    -3.0405323123    -0.6638167527
Bq         1.6757263213    -3.1736105679    -0.2249931291
Bq         1.6248580841    -3.1038332362    -0.1129951540
Bq         1.7045816117    -3.0506019340    -0.2885246034
Bq         1.5849963203    -3.1304488874    -0.0252304292
Bq         1.7444433755    -3.0239862829    -0.3762893281
Bq         1.5451345565    -3.1570645385     0.0625342955
Bq         1.7843051392    -2.9973706318    -0.4640540528
Bq         1.5052727927    -3.1836801896     0.1502990202
Bq         1.8241669030    -2.9707549807    -0.5518187775
Bq         1.4654110289    -3.2102958407     0.2380637449
Bq         1.8640286668    -2.9441393296    -0.6395835022
Bq         1.6647198479    -3.0772175851    -0.2007598787
Bq         1.6138516107    -3.0074402535    -0.0887619035
Bq         1.6935751383    -2.9542089513    -0.2642913529
Bq         1.5739898469    -3.0340559046    -0.0009971788
Bq         1.7334369021    -2.9275933002    -0.3520560776
Bq         1.5341280831    -3.0606715558     0.0867675459
Bq         1.7732986659    -2.9009776491    -0.4398208024
Bq         1.4942663194    -3.0872872069     0.1745322706
Bq         1.8131604297    -2.8743619980    -0.5275855271
Bq         1.4544045556    -3.1139028580     0.2622969954
Bq         1.8530221934    -2.8477463469    -0.6153502518
Bq         1.6537133745    -2.9808246024    -0.1765266282
Bq         1.6028451374    -2.9110472708    -0.0645286530
Bq         1.6825686649    -2.8578159686    -0.2400581025
Bq         1.5629833736    -2.9376629219     0.0232360717
Bq         1.7224304287    -2.8312003175    -0.3278228272
Bq         1.5231216098    -2.9642785730     0.1110007964
Bq         1.7622921925    -2.8045846664    -0.4155875519
Bq         1.4832598460    -2.9908942241     0.1987655211
Bq         1.8021539563    -2.7779690153    -0.5033522766
Bq         1.4433980822    -3.0175098753     0.2865302458
Bq         1.8420157201    -2.7513533642    -0.5911170013
Bq         1.6427069011    -2.8844316197    -0.1522933778
Bq         1.5918386640    -2.8146542881    -0.0402954026
Bq         1.6715621916    -2.7614229859    -0.2158248520
Bq         1.5519769002    -2.8412699392     0.0474693221
Bq         1.7114239553    -2.7348073348    -0.3035895767
Bq         1.5121151364    -2.8678855903     0.1352340468
Bq         1.7512857191    -2.7081916837    -0.3913543014
Bq         1.4722533726    -2.8945012414     0.2229987716
Bq         1.7911474829    -2.6815760326    -0.4791190261
Bq         1.4323916088    -2.9211168925     0.3107634963
Bq         1.8310092467    -2.6549603815    -0.5668837509
Bq         1.6317004278    -2.7880386370    -0.1280601273
Bq         1.5808321906    -2.7182613054    -0.0160621521
Bq         1.6605557182    -2.6650300032    -0.1915916016
Bq         1.5409704268    -2.7448769565     0.0717025726
Bq         1.7004174820    -2.6384143521    -0.2793563263
Bq         1.5011086630    -2.7714926076     0.1594672973
Bq         1.7402792458    -2.6117987010    -0.3671210510
Bq         1.4612468992    -2.7981082587     0.2472320220
Bq         1.7801410095    -2.5851830499    -0.4548857757
Bq         1.4213851355    -2.8247239098     0.3349967467
Bq         1.8200027733    -2.5585673988    -0.5426505004
Bq         1.6206939544    -2.6916456543    -0.1038268768
Bq         1.5698257172    -2.6218683227     0.0081710983
Bq         1.6495492448    -2.5686370205    -0.1673583511
Bq         1.5299639534    -2.6484839738     0.0959358230
Bq         1.6894110086    -2.5420213694    -0.2551230758
Bq         1.4901021897    -2.6750996249     0.1837005478
Bq         1.7292727724    -2.5154057183    -0.3428878005
Bq         1.4502404259    -2.7017152760     0.2714652725
Bq         1.7691345362    -2.4887900672    -0.4306525252
Bq         1.4103786621    -2.7283309271     0.3592299972
Bq         1.8089963000    -2.4621744160    -0.5184172499
Bq         1.6096874810    -2.5952526716    -0.0795936264
Bq         1.5588192439    -2.5254753400     0.0324043488
Bq         1.6385427714    -2.4722440378    -0.1431251006
Bq         1.5189574801    -2.5520909911     0.1201690735
Bq         1.6784045352    -2.4456283867    -0.2308898253
Bq         1.4790957163    -2.5787066422     0.2079337982
Bq         1.7182662990    -2.4190127355    -0.3186545501
Bq         1.4392339525    -2.6053222933     0.2956985229
Bq         1.7581280628    -2.3923970844    -0.4064192748
Bq         1.3993721887    -2.6319379444     0.3834632476
Bq         1.7979898266    -2.3657814333    -0.4941839995
Bq         1.5986810076    -2.4988596889    -0.0553603759
Bq         1.5478127705    -2.4290823573     0.0566375992
Bq         1.6275362981    -2.3758510550    -0.1188918502
Bq         1.5079510067    -2.4556980084     0.1444023240
Bq         1.6673980619    -2.3492354039    -0.2066565749
Bq         1.4680892429    -2.4823136595     0.2321670487
Bq         1.7072598256    -2.3226197528    -0.2944212996
Bq         1.4282274791    -2.5089293106     0.3199317734
Bq         1.7471215894    -2.2960041017    -0.3821860243
Bq         1.3883657153    -2.5355449617     0.4076964981
Bq         1.7869833532    -2.2693884506    -0.4699507490
Bq         1.5876745343    -2.4024667062    -0.0311271255
Bq         1.5368062971    -2.3326893746     0.0808708497
Bq         1.6165298247    -2.2794580723    -0.0946585997
Bq         1.4969445333    -2.3593050257     0.1686355744
Bq         1.6563915885    -2.2528424212    -0.1824233244
Bq         1.4570827695    -2.3859206768     0.2564002991
Bq         1.6962533523    -2.2262267701    -0.2701880491
Bq         1.4172210058    -2.4125363279     0.3441650238
Bq         1.7361151161    -2.1996111190    -0.3579527739
Bq         1.3773592420    -2.4391519790     0.4319297486
Bq         1.7759768798    -2.1729954679    -0.4457174986
Bq         1.5766680609    -2.3060737234    -0.0068938750
Bq         1.5257998237    -2.2362963918     0.1051041002
Bq         1.6055233513    -2.1830650896    -0.0704253493
Bq         1.4859380600    -2.2629120429     0.1928688249
Bq         1.6453851151    -2.1564494385    -0.1581900740
Bq         1.4460762962    -2.2895276941     0.2806335496
Bq         1.6852468789    -2.1298337874    -0.2459547987
Bq         1.4062145324    -2.3161433452     0.3683982743
Bq         1.7251086427    -2.1032181363    -0.3337195234
Bq         1.3663527686    -2.3427589963     0.4561629990
Bq         1.7649704065    -2.0766024852    -0.4214842481
Bq         1.5656615875    -2.2096807407     0.0173393755
Bq         1.5147933504    -2.1399034091     0.1293373506
Bq         1.5945168779    -2.0866721069    -0.0461920988
Bq         1.4749315866    -2.1665190602     0.2171020753
Bq         1.6343786417    -2.0600564558    -0.1339568235
Bq         1.4350698228    -2.1931347113     0.3048668000
Bq         1.6742404055    -2.0334408047    -0.2217215482
Bq         1.3952080590    -2.2197503624     0.3926315248
Bq         1.7141021693    -2.0068251536    -0.3094862729
Bq         1.3553462952    -2.2463660136     0.4803962495
Bq         1.7539639331    -1.9802095025    -0.3972509977
Bq         1.5546551142    -2.1132877580     0.0415726259

1
2
3
4
5
6
7
8
9
10
11
12
13
14
15
16
17
18
19
20
21
22
23
24
25
26
27
28
29
30
31
32
33
34
35
36
37
38
39
40
41
42
43
44
45
46
47
48
49
50
51
52
53
54
55
56
57
58
59
60
61
62
63
64
65
66
67
68
69
70
71
72
73
74
75
76
77
78
79
80
81
82
83
84
85
86
87
88
89
90
91
92
93
94
95
96
97
98
99
100
101
102
103
104
105
106
107
108
109
110
111
112
113
114
115
116
117
118
119
120
121
122
123
124
125
126
127
128
129
130
131
132
133
134
135
136
137
138
139
140
141
142
143
144
145
146
147
148
149
150
151
152
153
154
155
156
157
158
159
160
161
162
163
164
165
166
167
168
169
170
171
172
173
174
175
176
177
178
179
180
181
182
183
184
185
186
187
188
189
190
191
192
193
194
195
196
197
198
199
200
201
202
203
204
205
206
207
208
209
210
211
212
213
214
215
216
217
218
219
220
221
222
223
224
225
226
227
228
229
230
231
232
233
234
235
236

