%nproc=8
%mem=1000MB
# rb3lyp/6-311+g** NMR geom=connectivity

Title

0 1
C    -4.0500558   -0.5771862    0.8136712
H    -5.0263804   -1.0082727    1.0024760
C    -3.9381552    0.6617804    0.2400876
H    -4.8252424    1.2338890   -0.0111295
C    -2.6768410    1.2433246    0.0057578
C    -1.4974121    0.5051527    0.2848253
C    -1.6508332   -0.7338728    0.9404026
H    -0.7713646   -1.2730967    1.2633753
C    -2.8898548   -1.2624035    1.1994307
H    -2.9683706   -2.2124563    1.7152676
C    -2.5773185    2.5963696   -0.4192930
H    -3.4870728    3.1412239   -0.6474055
C    -1.3741895    3.2147896   -0.4364030
H    -1.2997315    4.2742019   -0.6578144
C    -0.1719488    2.4994090   -0.1734588
C    -0.2043917    1.1018437    0.0192689
C     1.0513491    3.2042560   -0.0676222
H     1.0427344    4.2819499   -0.1896997
C     2.1942091    2.5487446    0.2579577
H     3.1168527    3.0912848    0.4334727
C     2.2216473    1.1336562    0.2934990
C     1.0486931    0.3945528    0.0302412
C     3.4483363    0.4614633    0.5573939
H     4.3095794    1.0606054    0.8334846
C     3.5427346   -0.8855926    0.4749463
H     4.4731467   -1.3939704    0.7038822
C     2.4490052   -1.6474447   -0.0196319
C     1.2150704   -1.0057258   -0.3013573
C     0.2531113   -1.7434440   -1.0216591
H    -0.6541356   -1.2535051   -1.3462847
C     0.4494193   -3.0628597   -1.3413779
H    -0.3083162   -3.5944309   -1.9054060
C     1.6251726   -3.7207967   -0.9552541
H     1.7670048   -4.7687404   -1.1927019
C     2.6109872   -3.0144177   -0.3183050
H     3.5525612   -3.4902813   -0.0646367
Bq        -4.3816969874     2.4849803188     0.0276508591
Bq        -4.3809889963     2.3980148848    -0.1524505347
Bq        -4.3820509830     2.5284630358     0.1177015560
Bq        -4.3806350007     2.3545321678    -0.2425012316
Bq        -4.3824049786     2.5719457528     0.2077522528
Bq        -4.3802810051     2.3110494508    -0.3325519285
Bq        -4.3827589741     2.6154284698     0.2978029497
Bq        -4.3799270095     2.2675667338    -0.4226026253
Bq        -4.3831129697     2.6589111868     0.3878536466
Bq        -4.3795730140     2.2240840168    -0.5126533222
Bq        -4.3813429918     2.4414976018    -0.0623998378
Bq        -4.2902443738    -2.0175893147     2.2021630146
Bq        -4.2895363827    -2.1045547487     2.0220616209
Bq        -4.2905983694    -1.9741065977     2.2922137115
Bq        -4.2891823871    -2.1480374658     1.9320109240
Bq        -4.2909523650    -1.9306238807     2.3822644084
Bq        -4.2888283915    -2.1915201828     1.8419602271
Bq        -4.2913063605    -1.8871411637     2.4723151053
Bq        -4.2884743959    -2.2350028998     1.7519095302
Bq        -4.2916603561    -1.8436584467     2.5623658022
Bq        -4.2881204004    -2.2784856168     1.6618588333
Bq        -4.2898903782    -2.0610720317     2.1121123178
Bq        -4.2900734415    -1.9275379221     2.1586806336
Bq        -4.2893654504    -2.0145033561     1.9785792398
Bq        -4.2904274371    -1.8840552051     2.2487313305
Bq        -4.2890114548    -2.0579860731     1.8885285430
Bq        -4.2907814327    -1.8405724881     2.3387820274
Bq        -4.2886574592    -2.1014687901     1.7984778461
Bq        -4.2911354283    -1.7970897711     2.4288327243
Bq        -4.2883034637    -2.1449515071     1.7084271492
Bq        -4.2914894238    -1.7536070540     2.5188834211
Bq        -4.2879494681    -2.1884342241     1.6183764523
Bq        -4.2897194460    -1.9710206391     2.0686299367
Bq        -4.2899025093    -1.8374865294     2.1151982526
Bq        -4.2891945181    -1.9244519634     1.9350968588
Bq        -4.2902565048    -1.7940038124     2.2052489495
Bq        -4.2888405225    -1.9679346804     1.8450461619
Bq        -4.2906105004    -1.7505210954     2.2952996463
Bq        -4.2884865270    -2.0114173974     1.7549954650
Bq        -4.2909644960    -1.7070383784     2.3853503432
Bq        -4.2881325314    -2.0549001144     1.6649447682
Bq        -4.2913184915    -1.6635556614     2.4754010401
Bq        -4.2877785358    -2.0983828314     1.5748940713
Bq        -4.2895485137    -1.8809692464     2.0251475557
Bq        -4.2897315770    -1.7474351367     2.0717158715
Bq        -4.2890235858    -1.8344005707     1.8916144778
Bq        -4.2900855726    -1.7039524197     2.1617665684
Bq        -4.2886695903    -1.8778832877     1.8015637809
Bq        -4.2904395681    -1.6604697027     2.2518172653
Bq        -4.2883155947    -1.9213660047     1.7115130840
Bq        -4.2907935637    -1.6169869857     2.3418679622
Bq        -4.2879615991    -1.9648487217     1.6214623871
Bq        -4.2911475593    -1.5735042687     2.4319186591
Bq        -4.2876076035    -2.0083314388     1.5314116902
Bq        -4.2893775814    -1.7909178537     1.9816651747
Bq        -4.2895606447    -1.6573837441     2.0282334905
Bq        -4.2888526536    -1.7443491781     1.8481320967
Bq        -4.2899146403    -1.6139010270     2.1182841874
Bq        -4.2884986580    -1.7878318951     1.7580813999
Bq        -4.2902686359    -1.5704183100     2.2083348843
Bq        -4.2881446624    -1.8313146121     1.6680307030
Bq        -4.2906226314    -1.5269355930     2.2983855812
Bq        -4.2877906668    -1.8747973291     1.5779800061
Bq        -4.2909766270    -1.4834528760     2.3884362780
Bq        -4.2874366713    -1.9182800461     1.4879293092
Bq        -4.2892066491    -1.7008664611     1.9381827936
Bq        -4.2893897124    -1.5673323514     1.9847511095
Bq        -4.2886817213    -1.6542977854     1.8046497157
Bq        -4.2897437080    -1.5238496344     2.0748018064
Bq        -4.2883277257    -1.6977805024     1.7145990188
Bq        -4.2900977036    -1.4803669174     2.1648525032
Bq        -4.2879737301    -1.7412632194     1.6245483219
Bq        -4.2904516992    -1.4368842004     2.2549032001
Bq        -4.2876197346    -1.7847459364     1.5344976251
Bq        -4.2908056947    -1.3934014834     2.3449538970
Bq        -4.2872657390    -1.8282286534     1.4444469282
Bq        -4.2890357169    -1.6108150684     1.8947004126
Bq        -4.2892187802    -1.4772809587     1.9412687284
Bq        -4.2885107890    -1.5642463927     1.7611673347
Bq        -4.2895727757    -1.4337982417     2.0313194253
Bq        -4.2881567934    -1.6077291097     1.6711166378
Bq        -4.2899267713    -1.3903155247     2.1213701222
Bq        -4.2878027979    -1.6512118267     1.5810659409
Bq        -4.2902807669    -1.3468328077     2.2114208191
Bq        -4.2874488023    -1.6946945437     1.4910152440
Bq        -4.2906347625    -1.3033500907     2.3014715160
Bq        -4.2870948067    -1.7381772607     1.4009645472
Bq        -4.2888647846    -1.5207636757     1.8512180316
Bq        -4.2890478479    -1.3872295660     1.8977863474
Bq        -4.2883398567    -1.4741950001     1.7176849536
Bq        -4.2894018435    -1.3437468490     1.9878370443
Bq        -4.2879858612    -1.5176777171     1.6276342568
Bq        -4.2897558390    -1.3002641320     2.0778877412
Bq        -4.2876318656    -1.5611604341     1.5375835599
Bq        -4.2901098346    -1.2567814150     2.1679384381
Bq        -4.2872778700    -1.6046431511     1.4475328630
Bq        -4.2904638302    -1.2132986980     2.2579891349
Bq        -4.2869238744    -1.6481258681     1.3574821661
Bq        -4.2886938523    -1.4307122830     1.8077356505
Bq        -4.2888769156    -1.2971781734     1.8543039664
Bq        -4.2881689245    -1.3841436074     1.6742025726
Bq        -4.2892309112    -1.2536954564     1.9443546633
Bq        -4.2878149289    -1.4276263244     1.5841518757
Bq        -4.2895849068    -1.2102127394     2.0344053601
Bq        -4.2874609333    -1.4711090414     1.4941011789
Bq        -4.2899389023    -1.1667300224     2.1244560570
Bq        -4.2871069377    -1.5145917584     1.4040504820
Bq        -4.2902928979    -1.1232473054     2.2145067539
Bq        -4.2867529422    -1.5580744754     1.3139997851
Bq        -4.2885229200    -1.3406608904     1.7642532695
Bq        -4.2887059833    -1.2071267807     1.8108215853
Bq        -4.2879979922    -1.2940922147     1.6307201916
Bq        -4.2890599789    -1.1636440637     1.9008722822
Bq        -4.2876439966    -1.3375749317     1.5406694947
Bq        -4.2894139745    -1.1201613467     1.9909229791
Bq        -4.2872900010    -1.3810576487     1.4506187978
Bq        -4.2897679701    -1.0766786297     2.0809736760
Bq        -4.2869360055    -1.4245403657     1.3605681009
Bq        -4.2901219656    -1.0331959127     2.1710243729
Bq        -4.2865820099    -1.4680230827     1.2705174041
Bq        -4.2883519878    -1.2506094977     1.7207708885
Bq        -4.2885350511    -1.1170753880     1.7673392043
Bq        -4.2878270599    -1.2040408220     1.5872378106
Bq        -4.2888890466    -1.0735926710     1.8573899012
Bq        -4.2874730643    -1.2475235390     1.4971871137
Bq        -4.2892430422    -1.0301099540     1.9474405981
Bq        -4.2871190688    -1.2910062560     1.4071364168
Bq        -4.2895970378    -0.9866272370     2.0374912950
Bq        -4.2867650732    -1.3344889731     1.3170857199
Bq        -4.2899510334    -0.9431445200     2.1275419918
Bq        -4.2864110776    -1.3779716901     1.2270350230
Bq        -4.2881810555    -1.1605581050     1.6772885074
Bq        -4.2883641188    -1.0270239954     1.7238568233
Bq        -4.2876561276    -1.1139894294     1.5437554295
Bq        -4.2887181144    -0.9835412784     1.8139075202
Bq        -4.2873021321    -1.1574721464     1.4537047326
Bq        -4.2890721099    -0.9400585614     1.9039582170
Bq        -4.2869481365    -1.2009548634     1.3636540358
Bq        -4.2894261055    -0.8965758443     1.9940089139
Bq        -4.2865941409    -1.2444375804     1.2736033389
Bq        -4.2897801011    -0.8530931273     2.0840596108
Bq        -4.2862401453    -1.2879202974     1.1835526420
Bq        -4.2880101232    -1.0705067124     1.6338061264
Bq        -4.2881931865    -0.9369726027     1.6803744423
Bq        -4.2874851954    -1.0239380367     1.5002730485
Bq        -4.2885471821    -0.8934898857     1.7704251391
Bq        -4.2871311998    -1.0674207537     1.4102223516
Bq        -4.2889011777    -0.8500071687     1.8604758360
Bq        -4.2867772042    -1.1109034707     1.3201716547
Bq        -4.2892551732    -0.8065244517     1.9505265329
Bq        -4.2864232086    -1.1543861877     1.2301209578
Bq        -4.2896091688    -0.7630417347     2.0405772298
Bq        -4.2860692131    -1.1978689047     1.1400702610
Bq        -4.2878391909    -0.9804553197     1.5903237454
Bq        -4.2880222542    -0.8469212100     1.6368920612
Bq        -4.2873142631    -0.9338866440     1.4567906675
Bq        -4.2883762498    -0.8034384930     1.7269427581
Bq        -4.2869602675    -0.9773693610     1.3667399706
Bq        -4.2887302454    -0.7599557760     1.8169934550
Bq        -4.2866062719    -1.0208520780     1.2766892737
Bq        -4.2890842410    -0.7164730590     1.9070441519
Bq        -4.2862522764    -1.0643347950     1.1866385768
Bq        -4.2894382365    -0.6729903420     1.9970948487
Bq        -4.2858982808    -1.1078175120     1.0965878799
Bq        -4.2876682587    -0.8904039270     1.5468413643
Bq        -4.2878513220    -0.7568698173     1.5934096802
Bq        -4.2871433308    -0.8438352514     1.4133082864
Bq        -4.2882053175    -0.7133871003     1.6834603771
Bq        -4.2867893352    -0.8873179684     1.3232575895
Bq        -4.2885593131    -0.6699043833     1.7735110740
Bq        -4.2864353397    -0.9308006854     1.2332068927
Bq        -4.2889133087    -0.6264216663     1.8635617708
Bq        -4.2860813441    -0.9742834024     1.1431561958
Bq        -4.2892673043    -0.5829389493     1.9536124677
Bq        -4.2857273485    -1.0177661194     1.0531054989
Bq        -4.2874973264    -0.8003525344     1.5033589833
Bq        -4.2876803897    -0.6668184247     1.5499272992
Bq        -4.2869723985    -0.7537838587     1.3698259054
Bq        -4.2880343853    -0.6233357077     1.6399779960
Bq        -4.2866184030    -0.7972665757     1.2797752085
Bq        -4.2883883808    -0.5798529907     1.7300286929
Bq        -4.2862644074    -0.8407492927     1.1897245116
Bq        -4.2887423764    -0.5363702737     1.8200793898
Bq        -4.2859104118    -0.8842320097     1.0996738147
Bq        -4.2890963720    -0.4928875567     1.9101300867
Bq        -4.2855564162    -0.9277147267     1.0096231179
Bq        -4.2873263941    -0.7103011417     1.4598766023
Bq        -4.2875094574    -0.5767670320     1.5064449181
Bq        -4.2868014663    -0.6637324660     1.3263435244
Bq        -4.2878634530    -0.5332843150     1.5964956150
Bq        -4.2864474707    -0.7072151830     1.2362928275
Bq        -4.2882174486    -0.4898015980     1.6865463119
Bq        -4.2860934751    -0.7506979000     1.1462421306
Bq        -4.2885714441    -0.4463188810     1.7765970088
Bq        -4.2857394795    -0.7941806170     1.0561914337
Bq        -4.2889254397    -0.4028361640     1.8666477057
Bq        -4.2853854840    -0.8376633340     0.9661407368
Bq        -4.2871554618    -0.6202497490     1.4163942212
Bq        -4.2873385251    -0.4867156393     1.4629625371
Bq        -4.2866305340    -0.5736810733     1.2828611433

1
2
3
4
5
6
7
8
9
10
11
12
13
14
15
16
17
18
19
20
21
22
23
24
25
26
27
28
29
30
31
32
33
34
35
36
37
38
39
40
41
42
43
44
45
46
47
48
49
50
51
52
53
54
55
56
57
58
59
60
61
62
63
64
65
66
67
68
69
70
71
72
73
74
75
76
77
78
79
80
81
82
83
84
85
86
87
88
89
90
91
92
93
94
95
96
97
98
99
100
101
102
103
104
105
106
107
108
109
110
111
112
113
114
115
116
117
118
119
120
121
122
123
124
125
126
127
128
129
130
131
132
133
134
135
136
137
138
139
140
141
142
143
144
145
146
147
148
149
150
151
152
153
154
155
156
157
158
159
160
161
162
163
164
165
166
167
168
169
170
171
172
173
174
175
176
177
178
179
180
181
182
183
184
185
186
187
188
189
190
191
192
193
194
195
196
197
198
199
200
201
202
203
204
205
206
207
208
209
210
211
212
213
214
215
216
217
218
219
220
221
222
223
224
225
226
227
228
229
230
231
232
233
234
235
236

