%nproc=8
%mem=1000MB
# rb3lyp/6-311+g** NMR geom=connectivity

Title

0 1
C    -4.0500558   -0.5771862    0.8136712
H    -5.0263804   -1.0082727    1.0024760
C    -3.9381552    0.6617804    0.2400876
H    -4.8252424    1.2338890   -0.0111295
C    -2.6768410    1.2433246    0.0057578
C    -1.4974121    0.5051527    0.2848253
C    -1.6508332   -0.7338728    0.9404026
H    -0.7713646   -1.2730967    1.2633753
C    -2.8898548   -1.2624035    1.1994307
H    -2.9683706   -2.2124563    1.7152676
C    -2.5773185    2.5963696   -0.4192930
H    -3.4870728    3.1412239   -0.6474055
C    -1.3741895    3.2147896   -0.4364030
H    -1.2997315    4.2742019   -0.6578144
C    -0.1719488    2.4994090   -0.1734588
C    -0.2043917    1.1018437    0.0192689
C     1.0513491    3.2042560   -0.0676222
H     1.0427344    4.2819499   -0.1896997
C     2.1942091    2.5487446    0.2579577
H     3.1168527    3.0912848    0.4334727
C     2.2216473    1.1336562    0.2934990
C     1.0486931    0.3945528    0.0302412
C     3.4483363    0.4614633    0.5573939
H     4.3095794    1.0606054    0.8334846
C     3.5427346   -0.8855926    0.4749463
H     4.4731467   -1.3939704    0.7038822
C     2.4490052   -1.6474447   -0.0196319
C     1.2150704   -1.0057258   -0.3013573
C     0.2531113   -1.7434440   -1.0216591
H    -0.6541356   -1.2535051   -1.3462847
C     0.4494193   -3.0628597   -1.3413779
H    -0.3083162   -3.5944309   -1.9054060
C     1.6251726   -3.7207967   -0.9552541
H     1.7670048   -4.7687404   -1.1927019
C     2.6109872   -3.0144177   -0.3183050
H     3.5525612   -3.4902813   -0.0646367
Bq        -0.5915042526    -0.8601789828    -0.5531696460
Bq        -0.6423724897    -0.7904016512    -0.4411716708
Bq        -0.5626489622    -0.7371703489    -0.6167011202
Bq        -0.6822342535    -0.8170173023    -0.3534069461
Bq        -0.5227871984    -0.7105546978    -0.7044658449
Bq        -0.7220960173    -0.8436329534    -0.2656422214
Bq        -0.4829254346    -0.6839390467    -0.7922305696
Bq        -0.7619577811    -0.8702486045    -0.1778774967
Bq        -0.4430636708    -0.6573233956    -0.8799952944
Bq        -0.8018195449    -0.8968642556    -0.0901127719
Bq        -0.4032019070    -0.6307077445    -0.9677600191
Bq        -0.6025107259    -0.7637860000    -0.5289363955
Bq        -0.6533789631    -0.6940086684    -0.4169384203
Bq        -0.5736554355    -0.6407773662    -0.5924678698
Bq        -0.6932407269    -0.7206243196    -0.3291736956
Bq        -0.5337936717    -0.6141617151    -0.6802325945
Bq        -0.7331024907    -0.7472399707    -0.2414089709
Bq        -0.4939319080    -0.5875460640    -0.7679973192
Bq        -0.7729642545    -0.7738556218    -0.1536442462
Bq        -0.4540701442    -0.5609304129    -0.8557620439
Bq        -0.8128260183    -0.8004712729    -0.0658795215
Bq        -0.4142083804    -0.5343147618    -0.9435267686
Bq        -0.6135171993    -0.6673930173    -0.5047031450
Bq        -0.6643854365    -0.5976156857    -0.3927051699
Bq        -0.5846619089    -0.5443843835    -0.5682346193
Bq        -0.7042472003    -0.6242313368    -0.3049404452
Bq        -0.5448001451    -0.5177687324    -0.6559993440
Bq        -0.7441089641    -0.6508469879    -0.2171757204
Bq        -0.5049383813    -0.4911530813    -0.7437640687
Bq        -0.7839707278    -0.6774626391    -0.1294109957
Bq        -0.4650766175    -0.4645374302    -0.8315287934
Bq        -0.8238324916    -0.7040782902    -0.0416462710
Bq        -0.4252148538    -0.4379217791    -0.9192935182
Bq        -0.6245236727    -0.5710000346    -0.4804698946
Bq        -0.6753919098    -0.5012227030    -0.3684719194
Bq        -0.5956683823    -0.4479914008    -0.5440013688
Bq        -0.7152536736    -0.5278383541    -0.2807071947
Bq        -0.5558066185    -0.4213757497    -0.6317660936
Bq        -0.7551154374    -0.5544540052    -0.1929424700
Bq        -0.5159448547    -0.3947600986    -0.7195308183
Bq        -0.7949772012    -0.5810696563    -0.1051777453
Bq        -0.4760830909    -0.3681444475    -0.8072955430
Bq        -0.8348389650    -0.6076853074    -0.0174130206
Bq        -0.4362213271    -0.3415287964    -0.8950602677
Bq        -0.6355301461    -0.4746070519    -0.4562366441
Bq        -0.6863983832    -0.4048297203    -0.3442386690
Bq        -0.6066748556    -0.3515984181    -0.5197681184
Bq        -0.7262601470    -0.4314453714    -0.2564739442
Bq        -0.5668130919    -0.3249827670    -0.6075328431
Bq        -0.7661219108    -0.4580610225    -0.1687092195
Bq        -0.5269513281    -0.2983671159    -0.6952975678
Bq        -0.8059836746    -0.4846766736    -0.0809444948
Bq        -0.4870895643    -0.2717514648    -0.7830622925
Bq        -0.8458454384    -0.5112923247     0.0068202299
Bq        -0.4472278005    -0.2451358137    -0.8708270172
Bq        -0.6465366194    -0.3782140692    -0.4320033937
Bq        -0.6974048566    -0.3084367376    -0.3200054185
Bq        -0.6176813290    -0.2552054354    -0.4955348679
Bq        -0.7372666204    -0.3350523887    -0.2322406938
Bq        -0.5778195652    -0.2285897843    -0.5832995926
Bq        -0.7771283842    -0.3616680398    -0.1444759691
Bq        -0.5379578014    -0.2019741332    -0.6710643174
Bq        -0.8169901480    -0.3882836909    -0.0567112444
Bq        -0.4980960377    -0.1753584821    -0.7588290421
Bq        -0.8568519117    -0.4148993420     0.0310534804
Bq        -0.4582342739    -0.1487428310    -0.8465937668
Bq        -0.6575430928    -0.2818210865    -0.4077701432
Bq        -0.7084113300    -0.2120437549    -0.2957721680
Bq        -0.6286878024    -0.1588124527    -0.4713016175
Bq        -0.7482730938    -0.2386594060    -0.2080074433
Bq        -0.5888260386    -0.1321968016    -0.5590663422
Bq        -0.7881348575    -0.2652750571    -0.1202427186
Bq        -0.5489642748    -0.1055811505    -0.6468310669
Bq        -0.8279966213    -0.2918907082    -0.0324779939
Bq        -0.5091025110    -0.0789654993    -0.7345957916
Bq        -0.8678583851    -0.3185063593     0.0552867308
Bq        -0.4692407472    -0.0523498482    -0.8223605163
Bq        -0.6685495662    -0.1854281038    -0.3835368928
Bq        -0.7194178033    -0.1156507722    -0.2715389176
Bq        -0.6396942758    -0.0624194700    -0.4470683670
Bq        -0.7592795671    -0.1422664233    -0.1837741929
Bq        -0.5998325120    -0.0358038189    -0.5348330917
Bq        -0.7991413309    -0.1688820744    -0.0960094682
Bq        -0.5599707482    -0.0091881677    -0.6225978164
Bq        -0.8390030947    -0.1954977255    -0.0082447434
Bq        -0.5201089844     0.0174274834    -0.7103625411
Bq        -0.8788648585    -0.2221133766     0.0795199813
Bq        -0.4802472206     0.0440431345    -0.7981272659
Bq        -0.6795560395    -0.0890351211    -0.3593036423
Bq        -0.0780452614    -4.9352999078    -1.4418480529
Bq         0.0016782662    -4.8820686056    -1.6173775023
Bq        -0.1179070252    -4.9619155589    -1.3540833281
Bq         0.0415400299    -4.8554529545    -1.7051422270
Bq        -0.1577687890    -4.9885312100    -1.2663186034
Bq         0.0814017937    -4.8288373034    -1.7929069517
Bq        -0.1976305528    -5.0151468611    -1.1785538787
Bq         0.1212635575    -4.8022216522    -1.8806716764
Bq        -0.2374923166    -5.0417625122    -1.0907891540
Bq         0.1611253213    -4.7756060011    -1.9684364011
Bq        -0.0381834976    -4.9086842567    -1.5296127776
Bq        -0.0890517348    -4.8389069251    -1.4176148024
Bq        -0.0093282072    -4.7856756229    -1.5931442518
Bq        -0.1289134986    -4.8655225762    -1.3298500777
Bq         0.0305335566    -4.7590599717    -1.6809089765
Bq        -0.1687752624    -4.8921382273    -1.2420853530
Bq         0.0703953204    -4.7324443206    -1.7686737012
Bq        -0.2086370262    -4.9187538784    -1.1543206283
Bq         0.1102570841    -4.7058286695    -1.8564384260
Bq        -0.2484987899    -4.9453695295    -1.0665559035
Bq         0.1501188479    -4.6792130184    -1.9442031507
Bq        -0.0491899710    -4.8122912740    -1.5053795271
Bq        -0.1000582082    -4.7425139424    -1.3933815519
Bq        -0.0203346806    -4.6892826401    -1.5689110014
Bq        -0.1399199720    -4.7691295935    -1.3056168272
Bq         0.0195270832    -4.6626669890    -1.6566757261
Bq        -0.1797817357    -4.7957452446    -1.2178521025
Bq         0.0593888470    -4.6360513379    -1.7444404508
Bq        -0.2196434995    -4.8223608957    -1.1300873778
Bq         0.0992506108    -4.6094356868    -1.8322051755
Bq        -0.2595052633    -4.8489765468    -1.0423226531
Bq         0.1391123746    -4.5828200357    -1.9199699002
Bq        -0.0601964444    -4.7158982912    -1.4811462767
Bq        -0.1110646815    -4.6461209596    -1.3691483015
Bq        -0.0313411540    -4.5928896574    -1.5446777509
Bq        -0.1509264453    -4.6727366108    -1.2813835768
Bq         0.0085206098    -4.5662740063    -1.6324424756
Bq        -0.1907882091    -4.6993522619    -1.1936188521
Bq         0.0483823736    -4.5396583552    -1.7202072003
Bq        -0.2306499729    -4.7259679130    -1.1058541273
Bq         0.0882441374    -4.5130427041    -1.8079719250
Bq        -0.2705117367    -4.7525835641    -1.0180894026
Bq         0.1281059012    -4.4864270530    -1.8957366498
Bq        -0.0712029177    -4.6195053085    -1.4569130262
Bq        -0.1220711549    -4.5497279769    -1.3449150510
Bq        -0.0423476273    -4.4964966747    -1.5204445004
Bq        -0.1619329187    -4.5763436280    -1.2571503263
Bq        -0.0024858635    -4.4698810236    -1.6082092252
Bq        -0.2017946825    -4.6029592791    -1.1693856016
Bq         0.0373759002    -4.4432653725    -1.6959739499
Bq        -0.2416564463    -4.6295749303    -1.0816208769
Bq         0.0772376640    -4.4166497214    -1.7837386746
Bq        -0.2815182101    -4.6561905814    -0.9938561522
Bq         0.1170994278    -4.3900340703    -1.8715033993
Bq        -0.0822093911    -4.5231123258    -1.4326797757
Bq        -0.1330776283    -4.4533349942    -1.3206818006
Bq        -0.0533541007    -4.4001036920    -1.4962112500
Bq        -0.1729393921    -4.4799506453    -1.2329170759
Bq        -0.0134923369    -4.3734880409    -1.5839759747
Bq        -0.2128011559    -4.5065662964    -1.1451523511
Bq         0.0263694269    -4.3468723898    -1.6717406994
Bq        -0.2526629196    -4.5331819475    -1.0573876264
Bq         0.0662311907    -4.3202567387    -1.7595054241
Bq        -0.2925246834    -4.5597975986    -0.9696229017
Bq         0.1060929544    -4.2936410876    -1.8472701488
Bq        -0.0932158645    -4.4267193431    -1.4084465253
Bq        -0.1440841017    -4.3569420115    -1.2964485501
Bq        -0.0643605741    -4.3037107093    -1.4719779995
Bq        -0.1839458654    -4.3835576626    -1.2086838254
Bq        -0.0244988103    -4.2770950582    -1.5597427242
Bq        -0.2238076292    -4.4101733137    -1.1209191007
Bq         0.0153629535    -4.2504794071    -1.6475074490
Bq        -0.2636693930    -4.4367889648    -1.0331543760
Bq         0.0552247173    -4.2238637560    -1.7352721737
Bq        -0.3035311568    -4.4634046159    -0.9453896513
Bq         0.0950864811    -4.1972481049    -1.8230368984
Bq        -0.1042223379    -4.3303263604    -1.3842132748
Bq        -0.1550905750    -4.2605490288    -1.2722152996
Bq        -0.0753670474    -4.2073177266    -1.4477447491
Bq        -0.1949523388    -4.2871646799    -1.1844505749
Bq        -0.0355052837    -4.1807020755    -1.5355094738
Bq        -0.2348141026    -4.3137803310    -1.0966858502
Bq         0.0043564801    -4.1540864244    -1.6232741985
Bq        -0.2746758664    -4.3403959821    -1.0089211255
Bq         0.0442182439    -4.1274707733    -1.7110389232
Bq        -0.3145376302    -4.3670116332    -0.9211564008
Bq         0.0840800077    -4.1008551222    -1.7988036479
Bq        -0.1152288112    -4.2339333777    -1.3599800244
Bq        -0.1660970484    -4.1641560461    -1.2479820492
Bq        -0.0863735208    -4.1109247439    -1.4235114986
Bq        -0.2059588122    -4.1907716972    -1.1602173245
Bq        -0.0465117570    -4.0843090928    -1.5112762233
Bq        -0.2458205760    -4.2173873483    -1.0724525998
Bq        -0.0066499932    -4.0576934417    -1.5990409480
Bq        -0.2856823398    -4.2440029994    -0.9846878751
Bq         0.0332117705    -4.0310777905    -1.6868056728
Bq        -0.3255441035    -4.2706186505    -0.8969231503
Bq         0.0730735343    -4.0044621394    -1.7745703975
Bq        -0.1262352846    -4.1375403950    -1.3357467739
Bq        -0.1771035218    -4.0677630634    -1.2237487987
Bq        -0.0973799942    -4.0145317612    -1.3992782482
Bq        -0.2169652856    -4.0943787145    -1.1359840740
Bq        -0.0575182304    -3.9879161100    -1.4870429729
Bq        -0.2568270493    -4.1209943656    -1.0482193493
Bq        -0.0176564666    -3.9613004589    -1.5748076976
Bq        -0.2966888131    -4.1476100167    -0.9604546246
Bq         0.0222052972    -3.9346848078    -1.6625724223
Bq        -0.3365505769    -4.1742256678    -0.8726898999
Bq         0.0620670610    -3.9080691567    -1.7503371470
Bq        -0.1372417580    -4.0411474123    -1.3115135234
Bq        -0.1881099951    -3.9713700807    -1.1995155483

1
2
3
4
5
6
7
8
9
10
11
12
13
14
15
16
17
18
19
20
21
22
23
24
25
26
27
28
29
30
31
32
33
34
35
36
37
38
39
40
41
42
43
44
45
46
47
48
49
50
51
52
53
54
55
56
57
58
59
60
61
62
63
64
65
66
67
68
69
70
71
72
73
74
75
76
77
78
79
80
81
82
83
84
85
86
87
88
89
90
91
92
93
94
95
96
97
98
99
100
101
102
103
104
105
106
107
108
109
110
111
112
113
114
115
116
117
118
119
120
121
122
123
124
125
126
127
128
129
130
131
132
133
134
135
136
137
138
139
140
141
142
143
144
145
146
147
148
149
150
151
152
153
154
155
156
157
158
159
160
161
162
163
164
165
166
167
168
169
170
171
172
173
174
175
176
177
178
179
180
181
182
183
184
185
186
187
188
189
190
191
192
193
194
195
196
197
198
199
200
201
202
203
204
205
206
207
208
209
210
211
212
213
214
215
216
217
218
219
220
221
222
223
224
225
226
227
228
229
230
231
232
233
234
235
236

