%nproc=8
%mem=1000MB
# rb3lyp/6-311+g** NMR geom=connectivity

Title

0 1
C    -4.0500558   -0.5771862    0.8136712
H    -5.0263804   -1.0082727    1.0024760
C    -3.9381552    0.6617804    0.2400876
H    -4.8252424    1.2338890   -0.0111295
C    -2.6768410    1.2433246    0.0057578
C    -1.4974121    0.5051527    0.2848253
C    -1.6508332   -0.7338728    0.9404026
H    -0.7713646   -1.2730967    1.2633753
C    -2.8898548   -1.2624035    1.1994307
H    -2.9683706   -2.2124563    1.7152676
C    -2.5773185    2.5963696   -0.4192930
H    -3.4870728    3.1412239   -0.6474055
C    -1.3741895    3.2147896   -0.4364030
H    -1.2997315    4.2742019   -0.6578144
C    -0.1719488    2.4994090   -0.1734588
C    -0.2043917    1.1018437    0.0192689
C     1.0513491    3.2042560   -0.0676222
H     1.0427344    4.2819499   -0.1896997
C     2.1942091    2.5487446    0.2579577
H     3.1168527    3.0912848    0.4334727
C     2.2216473    1.1336562    0.2934990
C     1.0486931    0.3945528    0.0302412
C     3.4483363    0.4614633    0.5573939
H     4.3095794    1.0606054    0.8334846
C     3.5427346   -0.8855926    0.4749463
H     4.4731467   -1.3939704    0.7038822
C     2.4490052   -1.6474447   -0.0196319
C     1.2150704   -1.0057258   -0.3013573
C     0.2531113   -1.7434440   -1.0216591
H    -0.6541356   -1.2535051   -1.3462847
C     0.4494193   -3.0628597   -1.3413779
H    -0.3083162   -3.5944309   -1.9054060
C     1.6251726   -3.7207967   -0.9552541
H     1.7670048   -4.7687404   -1.1927019
C     2.6109872   -3.0144177   -0.3183050
H     3.5525612   -3.4902813   -0.0646367
Bq         3.4990631291    -2.4887900672     0.3550618397
Bq         3.1403072550    -2.7283309271     1.1449443621
Bq         3.5389248929    -2.4621744160     0.2672971150
Bq         3.3396160740    -2.5952526716     0.7061207386
Bq         3.2887478368    -2.5254753400     0.8181187137
Bq         3.3684713644    -2.4722440378     0.6425892643
Bq         3.2488860730    -2.5520909911     0.9058834384
Bq         3.4083331282    -2.4456283867     0.5548245396
Bq         3.2090243092    -2.5787066422     0.9936481632
Bq         3.4481948920    -2.4190127355     0.4670598149
Bq         3.1691625455    -2.6053222933     1.0814128879
Bq         3.4880566558    -2.3923970844     0.3792950902
Bq         3.1293007817    -2.6319379444     1.1691776126
Bq         3.5279184195    -2.3657814333     0.2915303655
Bq         3.3286096006    -2.4988596889     0.7303539890
Bq         3.2777413634    -2.4290823573     0.8423519642
Bq         3.3574648910    -2.3758510550     0.6668225148
Bq         3.2378795997    -2.4556980084     0.9301166889
Bq         3.3973266548    -2.3492354039     0.5790577900
Bq         3.1980178359    -2.4823136595     1.0178814136
Bq         3.4371884186    -2.3226197528     0.4912930653
Bq         3.1581560721    -2.5089293106     1.1056461383
Bq         3.4770501824    -2.2960041017     0.4035283406
Bq         3.1182943083    -2.5355449617     1.1934108630
Bq         3.5169119462    -2.2693884506     0.3157636159
Bq         3.3176031272    -2.4024667062     0.7545872395
Bq         3.2667348901    -2.3326893746     0.8665852146
Bq         3.3464584176    -2.2794580723     0.6910557652
Bq         3.2268731263    -2.3593050257     0.9543499394
Bq         3.3863201814    -2.2528424212     0.6032910405
Bq         3.1870113625    -2.3859206768     1.0421146641
Bq         3.4261819452    -2.2262267701     0.5155263158
Bq         3.1471495987    -2.4125363279     1.1298793888
Bq         3.4660437090    -2.1996111190     0.4277615911
Bq         3.1072878349    -2.4391519790     1.2176441135
Bq         3.5059054728    -2.1729954679     0.3399968664
Bq         3.3065966539    -2.3060737234     0.7788204899
Bq         3.2557284167    -2.2362963918     0.8908184651
Bq         3.3354519443    -2.1830650896     0.7152890157
Bq         3.2158666529    -2.2629120429     0.9785831898
Bq         3.3753137081    -2.1564494385     0.6275242910
Bq         3.1760048891    -2.2895276941     1.0663479145
Bq         3.4151754719    -2.1298337874     0.5397595663
Bq         3.1361431253    -2.3161433452     1.1541126392
Bq         3.4550372356    -2.1032181363     0.4519948415
Bq         3.0962813616    -2.3427589963     1.2418773640
Bq         3.4948989994    -2.0766024852     0.3642301168
Bq         3.2955901805    -2.2096807407     0.8030537404
Bq         3.2447219433    -2.1399034091     0.9150517156
Bq         3.3244454709    -2.0866721069     0.7395222661
Bq         3.2048601795    -2.1665190602     1.0028164403
Bq         3.3643072347    -2.0600564558     0.6517575414
Bq         3.1649984158    -2.1931347113     1.0905811650
Bq         3.4041689985    -2.0334408047     0.5639928167
Bq         3.1251366520    -2.2197503624     1.1783458897
Bq         3.4440307623    -2.0068251536     0.4762280920
Bq         3.0852748882    -2.2463660136     1.2661106144
Bq         3.4838925261    -1.9802095025     0.3884633673
Bq         3.2845837071    -2.1132877580     0.8272869908
Bq         3.2337154700    -2.0435104264     0.9392849660
Bq         3.3134389975    -1.9902791242     0.7637555166
Bq         3.1938537062    -2.0701260775     1.0270496907
Bq         3.3533007613    -1.9636634731     0.6759907919
Bq         3.1539919424    -2.0967417286     1.1148144154
Bq         3.3931625251    -1.9370478220     0.5882260672
Bq         3.1141301786    -2.1233573797     1.2025791402
Bq         3.4330242889    -1.9104321709     0.5004613425
Bq         3.0742684148    -2.1499730308     1.2903438649
Bq         3.4728860527    -1.8838165198     0.4126966177
Bq         3.2735772337    -2.0168947753     0.8515202413
Bq         3.2227089966    -1.9471174437     0.9635182165
Bq         3.3024325242    -1.8938861415     0.7879887671
Bq         3.1828472328    -1.9737330948     1.0512829412
Bq         3.3422942879    -1.8672704904     0.7002240423
Bq         3.1429854690    -2.0003487459     1.1390476659
Bq         3.3821560517    -1.8406548393     0.6124593176
Bq         3.1031237052    -2.0269643970     1.2268123906
Bq         3.4220178155    -1.8140391882     0.5246945929
Bq         3.0632619414    -2.0535800481     1.3145771153
Bq         3.4618795793    -1.7874235371     0.4369298682
Bq         3.2625707604    -1.9205017926     0.8757534918
Bq         3.2117025232    -1.8507244610     0.9877514669
Bq         3.2914260508    -1.7974931588     0.8122220175
Bq         3.1718407594    -1.8773401121     1.0755161916
Bq         3.3312878146    -1.7708775077     0.7244572928
Bq         3.1319789956    -1.9039557632     1.1632809164
Bq         3.3711495784    -1.7442618566     0.6366925681
Bq         3.0921172319    -1.9305714143     1.2510456411
Bq         3.4110113422    -1.7176462055     0.5489278434
Bq         3.0522554681    -1.9571870654     1.3388103658
Bq         3.4508731059    -1.6910305543     0.4611631187
Bq         3.2515642870    -1.8241088099     0.8999867422
Bq         3.2006960498    -1.7543314783     1.0119847174
Bq         3.2804195774    -1.7011001761     0.8364552680
Bq         3.1608342861    -1.7809471294     1.0997494421
Bq         3.3202813412    -1.6744845250     0.7486905433
Bq         3.1209725223    -1.8075627805     1.1875141668
Bq         3.3601431050    -1.6478688739     0.6609258185
Bq         3.0811107585    -1.8341784316     1.2752788915
Bq         3.4000048688    -1.6212532227     0.5731610938
Bq         3.0412489947    -1.8607940827     1.3630436162
Bq         3.4398666326    -1.5946375716     0.4853963691
Bq         3.2405578136    -1.7277158272     0.9242199927
Bq         3.1896895765    -1.6579384956     1.0362179679
Bq         3.2694131040    -1.6047071934     0.8606885184
Bq         3.1498278127    -1.6845541467     1.1239826926
Bq         3.3092748678    -1.5780915422     0.7729237937
Bq         3.1099660489    -1.7111697978     1.2117474173
Bq         3.3491366316    -1.5514758911     0.6851590690
Bq         3.0701042851    -1.7377854489     1.2995121420
Bq         3.3889983954    -1.5248602400     0.5973943443
Bq         3.0302425213    -1.7644011000     1.3872768667
Bq         3.4288601592    -1.4982445889     0.5096296196
Bq         3.2295513403    -1.6313228445     0.9484532431
Bq         3.1786831031    -1.5615455129     1.0604512183
Bq         3.2584066307    -1.5083142106     0.8849217689
Bq         3.1388213393    -1.5881611640     1.1482159430
Bq         3.2982683945    -1.4816985595     0.7971570442
Bq         3.0989595755    -1.6147768151     1.2359806677
Bq         3.3381301582    -1.4550829084     0.7093923195
Bq         3.0590978117    -1.6413924662     1.3237453924
Bq         3.3779919220    -1.4284672573     0.6216275947
Bq         3.0192360479    -1.6680081173     1.4115101172
Bq         3.4178536858    -1.4018516062     0.5338628700
Bq         3.2185448669    -1.5349298617     0.9726864936
Bq         3.1676766297    -1.4651525301     1.0846844688
Bq         3.2474001573    -1.4119212279     0.9091550193
Bq         3.1278148659    -1.4917681812     1.1724491935
Bq         3.2872619211    -1.3853055768     0.8213902946
Bq         3.0879531022    -1.5183838324     1.2602139182
Bq         3.3271236849    -1.3586899257     0.7336255699
Bq         3.0480913384    -1.5449994835     1.3479786429
Bq         3.3669854487    -1.3320742746     0.6458608452
Bq         3.0082295746    -1.5716151346     1.4357433676
Bq         3.4068472125    -1.3054586235     0.5580961205
Bq         3.2075383935    -1.4385368790     0.9969197441
Bq         3.1566701564    -1.3687595474     1.1089177192
Bq         3.2363936839    -1.3155282452     0.9333882698
Bq         3.1168083926    -1.3953751985     1.1966824439
Bq         3.2762554477    -1.2889125941     0.8456235451
Bq         3.0769466288    -1.4219908496     1.2844471686
Bq         3.3161172115    -1.2622969430     0.7578588204
Bq         3.0370848650    -1.4486065008     1.3722118934
Bq         3.3559789753    -1.2356812919     0.6700940957
Bq         2.9972231012    -1.4752221519     1.4599766181
Bq         3.3958407391    -1.2090656408     0.5823293709
Bq         3.1965319201    -1.3421438963     1.0211529945
Bq         3.1456636830    -1.2723665647     1.1331509697
Bq         3.2253872106    -1.2191352625     0.9576215203
Bq         3.1058019192    -1.2989822158     1.2209156944
Bq         3.2652489743    -1.1925196114     0.8698567955
Bq         3.0659401554    -1.3255978669     1.3086804191
Bq         3.3051107381    -1.1659039603     0.7820920708
Bq         3.0260783916    -1.3522135180     1.3964451438
Bq         3.3449725019    -1.1392883092     0.6943273461
Bq         2.9862166278    -1.3788291691     1.4842098685
Bq         3.3848342657    -1.1126726581     0.6065626214
Bq         3.1855254468    -1.2457509136     1.0453862450
Bq         3.1346572096    -1.1759735820     1.1573842201
Bq         3.2143807372    -1.1227422798     0.9818547707
Bq         3.0947954458    -1.2025892331     1.2451489449
Bq         3.2542425010    -1.0961266287     0.8940900460
Bq         3.0549336820    -1.2292048842     1.3329136696
Bq         3.2941042648    -1.0695109776     0.8063253213
Bq         3.0150719182    -1.2558205353     1.4206783943
Bq         3.3339660285    -1.0428953265     0.7185605966
Bq         2.9752101545    -1.2824361864     1.5084431190
Bq         3.3738277923    -1.0162796754     0.6307958719
Bq         3.1745189734    -1.1493579309     1.0696194954
Bq         3.1236507362    -1.0795805993     1.1816174706
Bq         3.2033742638    -1.0263492971     1.0060880212
Bq         3.0837889724    -1.1061962504     1.2693821953
Bq         3.2432360276    -0.9997336460     0.9183232965
Bq         3.0439272087    -1.1328119015     1.3571469200
Bq         3.2830977914    -0.9731179949     0.8305585717
Bq         3.0040654449    -1.1594275526     1.4449116447
Bq         3.3229595552    -0.9465023438     0.7427938470
Bq         2.9642036811    -1.1860432037     1.5326763694
Bq         3.3628213190    -0.9198866927     0.6550291223
Bq         3.1635125000    -1.0529649482     1.0938527459
Bq         3.1126442629    -0.9831876166     1.2058507211
Bq         3.1923677904    -0.9299563144     1.0303212716
Bq         3.0727824991    -1.0098032677     1.2936154458
Bq         3.2322295542    -0.9033406633     0.9425565469
Bq         3.0329207353    -1.0364189188     1.3813801705
Bq         3.2720913180    -0.8767250122     0.8547918222
Bq         2.9930589715    -1.0630345699     1.4691448952
Bq         3.3119530818    -0.8501093610     0.7670270975
Bq         2.9531972077    -1.0896502210     1.5569096199
Bq         3.3518148456    -0.8234937099     0.6792623728
Bq         3.1525060267    -0.9565719655     1.1180859963
Bq         3.1016377895    -0.8867946339     1.2300839715
Bq         3.1813613171    -0.8335633317     1.0545545221
Bq         3.0617760257    -0.9134102850     1.3178486962
Bq         3.2212230809    -0.8069476805     0.9667897974
Bq         3.0219142619    -0.9400259361     1.4056134209
Bq         3.2610848446    -0.7803320294     0.8790250727
Bq         2.9820524981    -0.9666415872     1.4933781457
Bq         3.3009466084    -0.7537163783     0.7912603480
Bq         2.9421907343    -0.9932572383     1.5811428704

1
2
3
4
5
6
7
8
9
10
11
12
13
14
15
16
17
18
19
20
21
22
23
24
25
26
27
28
29
30
31
32
33
34
35
36
37
38
39
40
41
42
43
44
45
46
47
48
49
50
51
52
53
54
55
56
57
58
59
60
61
62
63
64
65
66
67
68
69
70
71
72
73
74
75
76
77
78
79
80
81
82
83
84
85
86
87
88
89
90
91
92
93
94
95
96
97
98
99
100
101
102
103
104
105
106
107
108
109
110
111
112
113
114
115
116
117
118
119
120
121
122
123
124
125
126
127
128
129
130
131
132
133
134
135
136
137
138
139
140
141
142
143
144
145
146
147
148
149
150
151
152
153
154
155
156
157
158
159
160
161
162
163
164
165
166
167
168
169
170
171
172
173
174
175
176
177
178
179
180
181
182
183
184
185
186
187
188
189
190
191
192
193
194
195
196
197
198
199
200
201
202
203
204
205
206
207
208
209
210
211
212
213
214
215
216
217
218
219
220
221
222
223
224
225
226
227
228
229
230
231
232
233
234
235
236

