%nproc=8
%mem=1000MB
# rb3lyp/6-311+g** NMR geom=connectivity

Title

0 1
C    -4.0500558   -0.5771862    0.8136712
H    -5.0263804   -1.0082727    1.0024760
C    -3.9381552    0.6617804    0.2400876
H    -4.8252424    1.2338890   -0.0111295
C    -2.6768410    1.2433246    0.0057578
C    -1.4974121    0.5051527    0.2848253
C    -1.6508332   -0.7338728    0.9404026
H    -0.7713646   -1.2730967    1.2633753
C    -2.8898548   -1.2624035    1.1994307
H    -2.9683706   -2.2124563    1.7152676
C    -2.5773185    2.5963696   -0.4192930
H    -3.4870728    3.1412239   -0.6474055
C    -1.3741895    3.2147896   -0.4364030
H    -1.2997315    4.2742019   -0.6578144
C    -0.1719488    2.4994090   -0.1734588
C    -0.2043917    1.1018437    0.0192689
C     1.0513491    3.2042560   -0.0676222
H     1.0427344    4.2819499   -0.1896997
C     2.1942091    2.5487446    0.2579577
H     3.1168527    3.0912848    0.4334727
C     2.2216473    1.1336562    0.2934990
C     1.0486931    0.3945528    0.0302412
C     3.4483363    0.4614633    0.5573939
H     4.3095794    1.0606054    0.8334846
C     3.5427346   -0.8855926    0.4749463
H     4.4731467   -1.3939704    0.7038822
C     2.4490052   -1.6474447   -0.0196319
C     1.2150704   -1.0057258   -0.3013573
C     0.2531113   -1.7434440   -1.0216591
H    -0.6541356   -1.2535051   -1.3462847
C     0.4494193   -3.0628597   -1.3413779
H    -0.3083162   -3.5944309   -1.9054060
C     1.6251726   -3.7207967   -0.9552541
H     1.7670048   -4.7687404   -1.1927019
C     2.6109872   -3.0144177   -0.3183050
H     3.5525612   -3.4902813   -0.0646367
Bq         1.1935382064     0.5615241512     0.5147211086
Bq         1.1641682916     0.6462791862     0.6240554223
Bq         1.2155260202     0.6747345042     0.4328678741
Bq         1.1384894273     0.6320515272     0.7196491964
Bq         1.2412048845     0.6889621633     0.3372741000
Bq         1.1128105629     0.6178238681     0.8152429705
Bq         1.2668837489     0.7031898223     0.2416803259
Bq         1.0871316986     0.6035962091     0.9108367446
Bq         1.2925626132     0.7174174813     0.1460865518
Bq         1.0614528343     0.5893685501     1.0064305186
Bq         1.3182414775     0.7316451404     0.0504927777
Bq         1.1898471559     0.6605068452     0.5284616482
Bq         1.1604772410     0.7452618802     0.6377959618
Bq         1.2118349697     0.7737171983     0.4466084136
Bq         1.1347983767     0.7310342212     0.7333897359
Bq         1.2375138340     0.7879448573     0.3510146395
Bq         1.1091195124     0.7168065622     0.8289835100
Bq         1.2631926983     0.8021725163     0.2554208654
Bq         1.0834406481     0.7025789031     0.9245772841
Bq         1.2888715627     0.8164001754     0.1598270914
Bq         1.0577617838     0.6883512441     1.0201710582
Bq         1.3145504270     0.8306278344     0.0642333173
Bq         1.1861561054     0.7594895393     0.5422021877
Bq         1.1567861905     0.8442445743     0.6515365014
Bq         1.2081439192     0.8726998923     0.4603489532
Bq         1.1311073262     0.8300169152     0.7471302755
Bq         1.2338227835     0.8869275513     0.3647551791
Bq         1.1054284619     0.8157892562     0.8427240496
Bq         1.2595016478     0.9011552104     0.2691614050
Bq         1.0797495975     0.8015615972     0.9383178237
Bq         1.2851805121     0.9153828694     0.1735676309
Bq         1.0540707332     0.7873339381     1.0339115978
Bq         1.3108593764     0.9296105284     0.0779738568
Bq         1.1824650548     0.8584722333     0.5559427273
Bq         1.1530951400     0.9432272683     0.6652770409
Bq         1.2044528686     0.9716825864     0.4740894928
Bq         1.1274162757     0.9289996093     0.7608708150
Bq         1.2301317329     0.9859102454     0.3784957187
Bq         1.1017374113     0.9147719502     0.8564645891
Bq         1.2558105973     1.0001379044     0.2829019446
Bq         1.0760585470     0.9005442912     0.9520583632
Bq         1.2814894616     1.0143655634     0.1873081705
Bq         1.0503796827     0.8863166322     1.0476521373
Bq         1.3071683259     1.0285932225     0.0917143964
Bq         1.1787740043     0.9574549273     0.5696832668
Bq         1.1494040894     1.0422099623     0.6790175805
Bq         1.2007618181     1.0706652804     0.4878300323
Bq         1.1237252251     1.0279823033     0.7746113546
Bq         1.2264406824     1.0848929394     0.3922362582
Bq         1.0980463608     1.0137546443     0.8702051287
Bq         1.2521195467     1.0991205984     0.2966424841
Bq         1.0723674965     0.9995269852     0.9657989028
Bq         1.2777984111     1.1133482575     0.2010487100
Bq         1.0466886321     0.9852993262     1.0613926769
Bq         1.3034772754     1.1275759165     0.1054549359
Bq         1.1750829538     1.0564376214     0.5834238064
Bq         1.1457130389     1.1411926564     0.6927581201
Bq         1.1970707675     1.1696479744     0.5015705719
Bq         1.1200341746     1.1269649973     0.7883518942
Bq         1.2227496319     1.1838756335     0.4059767978
Bq         1.0943553103     1.1127373383     0.8839456683
Bq         1.2484284962     1.1981032925     0.3103830237
Bq         1.0686764459     1.0985096793     0.9795394423
Bq         1.2741073605     1.2123309515     0.2147892496
Bq         1.0429975816     1.0842820203     1.0751332164
Bq         1.2997862248     1.2265586105     0.1191954755
Bq         1.1713919032     1.1554203154     0.5971643460
Bq         1.1420219884     1.2401753504     0.7064986596
Bq         1.1933797170     1.2686306685     0.5153111114
Bq         1.1163431240     1.2259476914     0.8020924337
Bq         1.2190585813     1.2828583275     0.4197173373
Bq         1.0906642597     1.2117200323     0.8976862078
Bq         1.2447374457     1.2970859865     0.3241235632
Bq         1.0649853954     1.1974923733     0.9932799819
Bq         1.2704163100     1.3113136455     0.2285297891
Bq         1.0393065311     1.1832647143     1.0888737560
Bq         1.2960951743     1.3255413046     0.1329360151
Bq         1.1677008527     1.2544030094     0.6109048855
Bq         1.1383309378     1.3391580444     0.7202391992
Bq         1.1896886665     1.3676133625     0.5290516510
Bq         1.1126520735     1.3249303854     0.8158329733
Bq         1.2153675308     1.3818410215     0.4334578769
Bq         1.0869732092     1.3107027264     0.9114267474
Bq         1.2410463951     1.3960686806     0.3378641028
Bq         1.0612943449     1.2964750674     1.0070205215
Bq         1.2667252594     1.4102963396     0.2422703287
Bq         1.0356154805     1.2822474083     1.1026142956
Bq         1.2924041238     1.4245239986     0.1466765546
Bq         1.1640098022     1.3533857035     0.6246454251
Bq         1.1346398873     1.4381407385     0.7339797387
Bq         1.1859976159     1.4665960565     0.5427921905
Bq         1.1089610230     1.4239130794     0.8295735128
Bq         1.2116764803     1.4808237156     0.4471984165
Bq         1.0832821587     1.4096854204     0.9251672869
Bq         1.2373553446     1.4950513746     0.3516046424
Bq         1.0576032943     1.3954577614     1.0207610610
Bq         1.2630342089     1.5092790336     0.2560108683
Bq         1.0319244300     1.3812301024     1.1163548351
Bq         1.2887130732     1.5235066926     0.1604170942
Bq         1.1603187516     1.4523683975     0.6383859646
Bq         1.1309488368     1.5371234325     0.7477202783
Bq         1.1823065654     1.5655787506     0.5565327301
Bq         1.1052699724     1.5228957735     0.8433140524
Bq         1.2079854297     1.5798064096     0.4609389560
Bq         1.0795911081     1.5086681145     0.9389078265
Bq         1.2336642941     1.5940340686     0.3653451819
Bq         1.0539122438     1.4944404554     1.0345016006
Bq         1.2593431584     1.6082617277     0.2697514078
Bq         1.0282333795     1.4802127964     1.1300953747
Bq         1.2850220227     1.6224893867     0.1741576337
Bq         1.1566277011     1.5513510915     0.6521265042
Bq         1.1272577862     1.6361061265     0.7614608179
Bq         1.1786155149     1.6645614446     0.5702732697
Bq         1.1015789219     1.6218784675     0.8570545920
Bq         1.2042943792     1.6787891036     0.4746794956
Bq         1.0759000576     1.6076508085     0.9526483660
Bq         1.2299732435     1.6930167627     0.3790857215
Bq         1.0502211933     1.5934231495     1.0482421401
Bq         1.2556521078     1.7072444217     0.2834919474
Bq         1.0245423289     1.5791954904     1.1438359142
Bq         1.2813309722     1.7214720807     0.1878981733
Bq         1.1529366505     1.6503337856     0.6658670438
Bq         1.1235667357     1.7350888206     0.7752013574
Bq         1.1749244643     1.7635441386     0.5840138092
Bq         1.0978878714     1.7208611616     0.8707951315
Bq         1.2006033287     1.7777717977     0.4884200351
Bq         1.0722090070     1.7066335025     0.9663889056
Bq         1.2262821930     1.7919994567     0.3928262610
Bq         1.0465301427     1.6924058435     1.0619826797
Bq         1.2519610573     1.8062271157     0.2972324869
Bq         1.0208512784     1.6781781845     1.1575764538
Bq         1.2776399216     1.8204547748     0.2016387128
Bq         1.1492456000     1.7493164796     0.6796075833
Bq         1.1198756852     1.8340715146     0.7889418970
Bq         1.1712334138     1.8625268327     0.5977543488
Bq         1.0941968208     1.8198438556     0.8845356711
Bq         1.1969122781     1.8767544917     0.5021605747
Bq         1.0685179565     1.8056161966     0.9801294452
Bq         1.2225911424     1.8909821507     0.4065668006
Bq         1.0428390922     1.7913885375     1.0757232193
Bq         1.2482700068     1.9052098098     0.3109730265
Bq         1.0171602279     1.7771608785     1.1713169934
Bq         1.2739488711     1.9194374688     0.2153792524
Bq         1.1455545495     1.8482991736     0.6933481229
Bq         1.1161846346     1.9330542087     0.8026824365
Bq         1.1675423633     1.9615095267     0.6114948883
Bq         1.0905057703     1.9188265496     0.8982762106
Bq         1.1932212276     1.9757371857     0.5159011142
Bq         1.0648269060     1.9045988906     0.9938699847
Bq         1.2189000919     1.9899648448     0.4203073402
Bq         1.0391480417     1.8903712316     1.0894637588
Bq         1.2445789562     2.0041925038     0.3247135661
Bq         1.0134691773     1.8761435725     1.1850575329
Bq         1.2702578206     2.0184201628     0.2291197920
Bq         1.1418634989     1.9472818677     0.7070886624
Bq         1.1124935841     2.0320369027     0.8164229761
Bq         1.1638513127     2.0604922207     0.6252354279
Bq         1.0868147198     2.0178092437     0.9120167502
Bq         1.1895301771     2.0747198798     0.5296416538
Bq         1.0611358554     2.0035815846     1.0076105243
Bq         1.2152090414     2.0889475388     0.4340478797
Bq         1.0354569911     1.9893539256     1.1032042984
Bq         1.2408879057     2.1031751978     0.3384541056
Bq         1.0097781268     1.9751262666     1.1987980725
Bq         1.2665667700     2.1174028569     0.2428603315
Bq         1.1381724484     2.0462645617     0.7208292020
Bq         1.1088025335     2.1310195967     0.8301635157
Bq         1.1601602622     2.1594749148     0.6389759675
Bq         1.0831236692     2.1167919377     0.9257572897
Bq         1.1858391265     2.1737025738     0.5433821934
Bq         1.0574448049     2.1025642787     1.0213510638
Bq         1.2115179908     2.1879302328     0.4477884193
Bq         1.0317659406     2.0883366196     1.1169448379
Bq         1.2371968552     2.2021578919     0.3521946452
Bq         1.0060870763     2.0741089606     1.2125386120
Bq         1.2628757195     2.2163855509     0.2566008711
Bq         1.1344813979     2.1452472558     0.7345697416
Bq         1.3899313104    -2.8181151051     0.1690793195
Bq         1.4412890390    -2.7896597870    -0.0221082287
Bq         1.3642524460    -2.8323427641     0.2646730936
Bq         1.4669679033    -2.7754321280    -0.1177020028
Bq         1.3385735817    -2.8465704231     0.3602668677
Bq         1.4926467677    -2.7612044690    -0.2132957769
Bq         1.3128947174    -2.8607980821     0.4558606418
Bq         1.5183256320    -2.7469768099    -0.3088895510
Bq         1.2872158531    -2.8750257412     0.5514544159
Bq         1.5440044963    -2.7327491509    -0.4044833251
Bq         1.4156101747    -2.8038874460     0.0734855454
Bq         1.3862402598    -2.7191324110     0.1828198591
Bq         1.4375979885    -2.6906770930    -0.0083676891
Bq         1.3605613955    -2.7333600701     0.2784136331
Bq         1.4632768528    -2.6764494339    -0.1039614632
Bq         1.3348825312    -2.7475877291     0.3740074072
Bq         1.4889557171    -2.6622217749    -0.1995552373
Bq         1.3092036669    -2.7618153881     0.4696011813
Bq         1.5146345814    -2.6479941159    -0.2951490114
Bq         1.2835248025    -2.7760430471     0.5651949554
Bq         1.5403134458    -2.6337664569    -0.3907427855
Bq         1.4119191242    -2.7049047520     0.0872260850
Bq         1.3825492093    -2.6201497170     0.1965603986

1
2
3
4
5
6
7
8
9
10
11
12
13
14
15
16
17
18
19
20
21
22
23
24
25
26
27
28
29
30
31
32
33
34
35
36
37
38
39
40
41
42
43
44
45
46
47
48
49
50
51
52
53
54
55
56
57
58
59
60
61
62
63
64
65
66
67
68
69
70
71
72
73
74
75
76
77
78
79
80
81
82
83
84
85
86
87
88
89
90
91
92
93
94
95
96
97
98
99
100
101
102
103
104
105
106
107
108
109
110
111
112
113
114
115
116
117
118
119
120
121
122
123
124
125
126
127
128
129
130
131
132
133
134
135
136
137
138
139
140
141
142
143
144
145
146
147
148
149
150
151
152
153
154
155
156
157
158
159
160
161
162
163
164
165
166
167
168
169
170
171
172
173
174
175
176
177
178
179
180
181
182
183
184
185
186
187
188
189
190
191
192
193
194
195
196
197
198
199
200
201
202
203
204
205
206
207
208
209
210
211
212
213
214
215
216
217
218
219
220
221
222
223
224
225
226
227
228
229
230
231
232
233
234
235
236

