%nproc=8
%mem=1000MB
# rb3lyp/6-311+g** NMR geom=connectivity

Title

0 1
C    -4.0500558   -0.5771862    0.8136712
H    -5.0263804   -1.0082727    1.0024760
C    -3.9381552    0.6617804    0.2400876
H    -4.8252424    1.2338890   -0.0111295
C    -2.6768410    1.2433246    0.0057578
C    -1.4974121    0.5051527    0.2848253
C    -1.6508332   -0.7338728    0.9404026
H    -0.7713646   -1.2730967    1.2633753
C    -2.8898548   -1.2624035    1.1994307
H    -2.9683706   -2.2124563    1.7152676
C    -2.5773185    2.5963696   -0.4192930
H    -3.4870728    3.1412239   -0.6474055
C    -1.3741895    3.2147896   -0.4364030
H    -1.2997315    4.2742019   -0.6578144
C    -0.1719488    2.4994090   -0.1734588
C    -0.2043917    1.1018437    0.0192689
C     1.0513491    3.2042560   -0.0676222
H     1.0427344    4.2819499   -0.1896997
C     2.1942091    2.5487446    0.2579577
H     3.1168527    3.0912848    0.4334727
C     2.2216473    1.1336562    0.2934990
C     1.0486931    0.3945528    0.0302412
C     3.4483363    0.4614633    0.5573939
H     4.3095794    1.0606054    0.8334846
C     3.5427346   -0.8855926    0.4749463
H     4.4731467   -1.3939704    0.7038822
C     2.4490052   -1.6474447   -0.0196319
C     1.2150704   -1.0057258   -0.3013573
C     0.2531113   -1.7434440   -1.0216591
H    -0.6541356   -1.2535051   -1.3462847
C     0.4494193   -3.0628597   -1.3413779
H    -0.3083162   -3.5944309   -1.9054060
C     1.6251726   -3.7207967   -0.9552541
H     1.7670048   -4.7687404   -1.1927019
C     2.6109872   -3.0144177   -0.3183050
H     3.5525612   -3.4902813   -0.0646367
Bq         0.8763610633     1.7877576854     0.0926649664
Bq         0.8417832313     2.0087015418     0.9644379792
Bq         0.8802030446     1.7632083681    -0.0041987017
Bq         0.8609931380     1.8859549549     0.4801196388
Bq         0.8581241108     2.0074441043     0.5524532774
Bq         0.8658080735     1.9583454695     0.3587259412
Bq         0.8542821295     2.0319934216     0.6493169455
Bq         0.8696500548     1.9337961521     0.2618622731
Bq         0.8504401482     2.0565427390     0.7461806136
Bq         0.8734920362     1.9092468348     0.1649986051
Bq         0.8465981669     2.0810920564     0.8430442817
Bq         0.8773340175     1.8846975174     0.0681349370
Bq         0.8427561855     2.1056413738     0.9399079498
Bq         0.8811759988     1.8601482000    -0.0287287311
Bq         0.8619660922     1.9828947869     0.4555896093
Bq         0.8590970651     2.1043839362     0.5279232480
Bq         0.8667810277     2.0552853014     0.3341959118
Bq         0.8552550837     2.1289332536     0.6247869161
Bq         0.8706230091     2.0307359841     0.2373322437
Bq         0.8514131024     2.1534825709     0.7216505842
Bq         0.8744649904     2.0061866667     0.1404685756
Bq         0.8475711211     2.1780318883     0.8185142523
Bq         0.8783069717     1.9816373493     0.0436049075
Bq         0.8437291398     2.2025812057     0.9153779203
Bq         0.8821489530     1.9570880319    -0.0532587606
Bq         0.8629390464     2.0798346188     0.4310595799
Bq         0.8600700193     2.2013237681     0.5033932186
Bq         0.8677539820     2.1522251334     0.3096658824
Bq         0.8562280380     2.2258730855     0.6002568866
Bq         0.8715959633     2.1276758160     0.2128022143
Bq         0.8523860566     2.2504224029     0.6971205547
Bq         0.8754379446     2.1031264986     0.1159385462
Bq         0.8485440753     2.2749717203     0.7939842228
Bq         0.8792799259     2.0785771813     0.0190748781
Bq         0.8447020940     2.2995210376     0.8908478909
Bq         0.8831219073     2.0540278639    -0.0777887900
Bq         0.8639120006     2.1767744508     0.4065295505
Bq         0.8610429735     2.2982636001     0.4788631891
Bq         0.8687269362     2.2491649653     0.2851358530
Bq         0.8572009922     2.3228129174     0.5757268572
Bq         0.8725689175     2.2246156479     0.1882721849
Bq         0.8533590109     2.3473622348     0.6725905253
Bq         0.8764108988     2.2000663306     0.0914085168
Bq         0.8495170295     2.3719115522     0.7694541934
Bq         0.8802528802     2.1755170132    -0.0054551513
Bq         0.8456750482     2.3964608696     0.8663178615
Bq         0.8840948615     2.1509676958    -0.1023188194
Bq         0.8648849549     2.2737142827     0.3819995210
Bq         0.8620159277     2.3952034320     0.4543331597
Bq         0.8696998904     2.3461047973     0.2606058235
Bq         0.8581739464     2.4197527494     0.5511968278
Bq         0.8735418717     2.3215554799     0.1637421554
Bq         0.8543319651     2.4443020668     0.6480604959
Bq         0.8773838531     2.2970061625     0.0668784873
Bq         0.8504899838     2.4688513841     0.7449241640
Bq         0.8812258344     2.2724568451    -0.0299851807
Bq         0.8466480024     2.4934007015     0.8417878321
Bq         0.8850678157     2.2479075278    -0.1268488488
Bq         0.8658579091     2.3706541146     0.3574694916
Bq         0.8629888820     2.4921432640     0.4298031303
Bq         0.8706728446     2.4430446292     0.2360757941
Bq         0.8591469006     2.5166925813     0.5266667984
Bq         0.8745148260     2.4184953118     0.1392121260
Bq         0.8553049193     2.5412418987     0.6235304665
Bq         0.8783568073     2.3939459944     0.0423484579
Bq         0.8514629380     2.5657912161     0.7203941345
Bq         0.8821987886     2.3693966771    -0.0545152102
Bq         0.8476209567     2.5903405335     0.8172578026
Bq         0.8860407699     2.3448473597    -0.1513788783
Bq         0.8668308633     2.4675939466     0.3329394622
Bq         0.8639618362     2.5890830959     0.4052731009
Bq         0.8716457989     2.5399844611     0.2115457647
Bq         0.8601198549     2.6136324133     0.5021367689
Bq         0.8754877802     2.5154351438     0.1146820966
Bq         0.8562778735     2.6381817306     0.5990004370
Bq         0.8793297615     2.4908858264     0.0178184285
Bq         0.8524358922     2.6627310480     0.6958641051
Bq         0.8831717428     2.4663365090    -0.0790452396
Bq         0.8485939109     2.6872803654     0.7927277732
Bq         0.8870137242     2.4417871916    -0.1759089077
Bq         0.8678038175     2.5645337785     0.3084094328
Bq         0.8649347904     2.6860229278     0.3807430714
Bq         0.8726187531     2.6369242931     0.1870157352
Bq         0.8610928091     2.7105722452     0.4776067395
Bq         0.8764607344     2.6123749757     0.0901520672
Bq         0.8572508278     2.7351215626     0.5744704076
Bq         0.8803027157     2.5878256583    -0.0067116009
Bq         0.8534088464     2.7596708800     0.6713340757
Bq         0.8841446971     2.5632763409    -0.1035752690
Bq         0.8495668651     2.7842201973     0.7681977438
Bq         0.8879866784     2.5387270236    -0.2004389371
Bq         0.8687767717     2.6614736105     0.2838794033
Bq         0.8659077446     2.7829627598     0.3562130420
Bq         0.8735917073     2.7338641250     0.1624857058
Bq         0.8620657633     2.8075120771     0.4530767101
Bq         0.8774336886     2.7093148076     0.0656220377
Bq         0.8582237820     2.8320613945     0.5499403782
Bq         0.8812756700     2.6847654903    -0.0312416304
Bq         0.8543818007     2.8566107119     0.6468040463
Bq         0.8851176513     2.6602161729    -0.1281052985
Bq         0.8505398193     2.8811600293     0.7436677144
Bq         0.8889596326     2.6356668555    -0.2249689665
Bq         0.8697497260     2.7584134424     0.2593493739
Bq         0.8668806989     2.8799025917     0.3316830126
Bq         0.8745646615     2.8308039570     0.1379556764
Bq         0.8630387175     2.9044519091     0.4285466807
Bq         0.8784066429     2.8062546396     0.0410920083
Bq         0.8591967362     2.9290012265     0.5254103487
Bq         0.8822486242     2.7817053222    -0.0557716598
Bq         0.8553547549     2.9535505438     0.6222740168
Bq         0.8860906055     2.7571560048    -0.1526353279
Bq         0.8515127736     2.9780998612     0.7191376849
Bq         0.8899325868     2.7326066875    -0.2494989960
Bq         0.8707226802     2.8553532743     0.2348193445
Bq         0.8678536531     2.9768424236     0.3071529831
Bq         0.8755376158     2.9277437889     0.1134256470
Bq         0.8640116718     3.0013917410     0.4040166512
Bq         0.8793795971     2.9031944715     0.0165619789
Bq         0.8601696904     3.0259410584     0.5008803193
Bq         0.8832215784     2.8786451541    -0.0803016892
Bq         0.8563277091     3.0504903758     0.5977439874
Bq         0.8870635597     2.8540958368    -0.1771653573
Bq         0.8524857278     3.0750396931     0.6946076555
Bq         0.8909055411     2.8295465194    -0.2740290254
Bq         0.8716956344     2.9522931063     0.2102893151
Bq         0.8688266073     3.0737822556     0.2826229537
Bq         0.8765105700     3.0246836208     0.0888956175
Bq         0.8649846260     3.0983315730     0.3794866218
Bq         0.8803525513     3.0001343035    -0.0079680506
Bq         0.8611426447     3.1228808903     0.4763502899
Bq         0.8841945326     2.9755849861    -0.1048317186
Bq         0.8573006633     3.1474302077     0.5732139580
Bq         0.8880365140     2.9510356687    -0.2016953867
Bq         0.8534586820     3.1719795251     0.6700776261
Bq         0.8918784953     2.9264863513    -0.2985590548
Bq         0.8726685886     3.0492329382     0.1857592856
Bq         0.8697995615     3.1707220875     0.2580929243
Bq         0.8774835242     3.1216234528     0.0643655881
Bq         0.8659575802     3.1952714049     0.3549565924
Bq         0.8813255055     3.0970741354    -0.0324980800
Bq         0.8621155989     3.2198207223     0.4518202605
Bq         0.8851674869     3.0725248180    -0.1293617481
Bq         0.8582736176     3.2443700397     0.5486839286
Bq         0.8890094682     3.0479755006    -0.2262254162
Bq         0.8544316362     3.2689193570     0.6455475966
Bq         0.8928514495     3.0234261833    -0.3230890843
Bq         0.8736415429     3.1461727701     0.1612292562
Bq         0.8707725158     3.2676619195     0.2335628949
Bq         0.8784564784     3.2185632847     0.0398355587
Bq         0.8669305344     3.2922112368     0.3304265630
Bq         0.8822984598     3.1940139673    -0.0570281094
Bq         0.8630885531     3.3167605542     0.4272902310
Bq         0.8861404411     3.1694646500    -0.1538917775
Bq         0.8592465718     3.3413098716     0.5241538991
Bq         0.8899824224     3.1449153326    -0.2507554456
Bq         0.8554045905     3.3658591890     0.6210175672
Bq         0.8938244037     3.1203660152    -0.3476191137
Bq         0.8746144971     3.2431126021     0.1366992268
Bq         0.8717454700     3.3646017514     0.2090328654
Bq         0.8794294326     3.3155031167     0.0153055293
Bq         0.8679034887     3.3891510688     0.3058965335
Bq         0.8832714140     3.2909537993    -0.0815581388
Bq         0.8640615073     3.4137003862     0.4027602016
Bq         0.8871133953     3.2664044819    -0.1784218069
Bq         0.8602195260     3.4382497035     0.4996238697
Bq         0.8909553766     3.2418551645    -0.2752854750
Bq         0.8563775447     3.4627990209     0.5964875378
Bq         0.8947973580     3.2173058471    -0.3721491431
Bq         0.8755874513     3.3400524340     0.1121691973
Bq         0.8727184242     3.4615415833     0.1845028360
Bq         0.8804023869     3.4124429486    -0.0092245002
Bq         0.8688764429     3.4860909007     0.2813665041
Bq         0.8842443682     3.3878936312    -0.1060881683
Bq         0.8650344616     3.5106402181     0.3782301722
Bq         0.8880863495     3.3633443138    -0.2029518364
Bq         0.8611924802     3.5351895355     0.4750938403
Bq         0.8919283309     3.3387949965    -0.2998155044
Bq         0.8573504989     3.5597388528     0.5719575084
Bq         0.8957703122     3.3142456791    -0.3966791725
Bq         0.8765604055     3.4369922660     0.0876391679
Bq         0.8736913784     3.5584814153     0.1599728066
Bq         0.8813753411     3.5093827805    -0.0337545296
Bq         0.8698493971     3.5830307327     0.2568364747
Bq         0.8852173224     3.4848334632    -0.1306181977
Bq         0.8660074158     3.6075800500     0.3537001428
Bq         0.8890593038     3.4602841458    -0.2274818658
Bq         0.8621654345     3.6321293674     0.4505638108
Bq         0.8929012851     3.4357348284    -0.3243455339
Bq         0.8583234531     3.6566786848     0.5474274789
Bq         0.8967432664     3.4111855110    -0.4212092020
Bq         0.8775333598     3.5339320979     0.0631091385
Bq         0.8746643327     3.6554212472     0.1354427772
Bq         0.8823482953     3.6063226125    -0.0582845590
Bq         0.8708223513     3.6799705646     0.2323064452
Bq         0.8861902767     3.5817732951    -0.1551482271
Bq         0.8669803700     3.7045198820     0.3291701133
Bq         0.8900322580     3.5572239777    -0.2520118952
Bq         0.8631383887     3.7290691993     0.4260337814
Bq         0.8938742393     3.5326746603    -0.3488755633
Bq         0.8592964073     3.7536185167     0.5228974495

1
2
3
4
5
6
7
8
9
10
11
12
13
14
15
16
17
18
19
20
21
22
23
24
25
26
27
28
29
30
31
32
33
34
35
36
37
38
39
40
41
42
43
44
45
46
47
48
49
50
51
52
53
54
55
56
57
58
59
60
61
62
63
64
65
66
67
68
69
70
71
72
73
74
75
76
77
78
79
80
81
82
83
84
85
86
87
88
89
90
91
92
93
94
95
96
97
98
99
100
101
102
103
104
105
106
107
108
109
110
111
112
113
114
115
116
117
118
119
120
121
122
123
124
125
126
127
128
129
130
131
132
133
134
135
136
137
138
139
140
141
142
143
144
145
146
147
148
149
150
151
152
153
154
155
156
157
158
159
160
161
162
163
164
165
166
167
168
169
170
171
172
173
174
175
176
177
178
179
180
181
182
183
184
185
186
187
188
189
190
191
192
193
194
195
196
197
198
199
200
201
202
203
204
205
206
207
208
209
210
211
212
213
214
215
216
217
218
219
220
221
222
223
224
225
226
227
228
229
230
231
232
233
234
235
236

