%nproc=8
%mem=1000MB
# rb3lyp/6-311+g** NMR geom=connectivity

Title

0 1
C    -4.0500558   -0.5771862    0.8136712
H    -5.0263804   -1.0082727    1.0024760
C    -3.9381552    0.6617804    0.2400876
H    -4.8252424    1.2338890   -0.0111295
C    -2.6768410    1.2433246    0.0057578
C    -1.4974121    0.5051527    0.2848253
C    -1.6508332   -0.7338728    0.9404026
H    -0.7713646   -1.2730967    1.2633753
C    -2.8898548   -1.2624035    1.1994307
H    -2.9683706   -2.2124563    1.7152676
C    -2.5773185    2.5963696   -0.4192930
H    -3.4870728    3.1412239   -0.6474055
C    -1.3741895    3.2147896   -0.4364030
H    -1.2997315    4.2742019   -0.6578144
C    -0.1719488    2.4994090   -0.1734588
C    -0.2043917    1.1018437    0.0192689
C     1.0513491    3.2042560   -0.0676222
H     1.0427344    4.2819499   -0.1896997
C     2.1942091    2.5487446    0.2579577
H     3.1168527    3.0912848    0.4334727
C     2.2216473    1.1336562    0.2934990
C     1.0486931    0.3945528    0.0302412
C     3.4483363    0.4614633    0.5573939
H     4.3095794    1.0606054    0.8334846
C     3.5427346   -0.8855926    0.4749463
H     4.4731467   -1.3939704    0.7038822
C     2.4490052   -1.6474447   -0.0196319
C     1.2150704   -1.0057258   -0.3013573
C     0.2531113   -1.7434440   -1.0216591
H    -0.6541356   -1.2535051   -1.3462847
C     0.4494193   -3.0628597   -1.3413779
H    -0.3083162   -3.5944309   -1.9054060
C     1.6251726   -3.7207967   -0.9552541
H     1.7670048   -4.7687404   -1.1927019
C     2.6109872   -3.0144177   -0.3183050
H     3.5525612   -3.4902813   -0.0646367
Bq        -1.5837819401     1.6279491091     0.5635322767
Bq        -1.5823659578     1.4540182411     0.2033294891
Bq        -1.5841359357     1.6714318261     0.6535829735
Bq        -1.5820119622     1.4105355241     0.1132787923
Bq        -1.5844899313     1.7149145431     0.7436336704
Bq        -1.5816579667     1.3670528071     0.0232280954
Bq        -1.5848439268     1.7583972601     0.8336843673
Bq        -1.5813039711     1.3235700901    -0.0668226015
Bq        -1.5830739490     1.5409836751     0.3834308829
Bq        -1.5832570123     1.6745177848     0.4299991987
Bq        -1.5825490211     1.5875523507     0.2498978050
Bq        -1.5836110078     1.7180005018     0.5200498956
Bq        -1.5821950255     1.5440696337     0.1598471081
Bq        -1.5839650034     1.7614832188     0.6101005925
Bq        -1.5818410300     1.5005869167     0.0697964112
Bq        -1.5843189990     1.8049659358     0.7001512894
Bq        -1.5814870344     1.4571041997    -0.0202542857
Bq        -1.5846729946     1.8484486528     0.7902019863
Bq        -1.5811330388     1.4136214827    -0.1103049825
Bq        -1.5829030167     1.6310350678     0.3399485019
Bq        -1.5830860800     1.7645691774     0.3865168177
Bq        -1.5823780888     1.6776037434     0.2064154240
Bq        -1.5834400756     1.8080518944     0.4765675146
Bq        -1.5820240933     1.6341210264     0.1163647271
Bq        -1.5837940711     1.8515346114     0.5666182115
Bq        -1.5816700977     1.5906383094     0.0263140302
Bq        -1.5841480667     1.8950173284     0.6566689084
Bq        -1.5813161021     1.5471555924    -0.0637366667
Bq        -1.5845020623     1.9385000454     0.7467196052
Bq        -1.5809621065     1.5036728754    -0.1537873636
Bq        -1.5827320844     1.7210864604     0.2964661208
Bq        -1.5829151477     1.8546205701     0.3430344367
Bq        -1.5822071566     1.7676551361     0.1629330429
Bq        -1.5832691433     1.8981032871     0.4330851336
Bq        -1.5818531610     1.7241724191     0.0728823460
Bq        -1.5836231389     1.9415860041     0.5231358304
Bq        -1.5814991654     1.6806897021    -0.0171683508
Bq        -1.5839771344     1.9850687211     0.6131865273
Bq        -1.5811451698     1.6372069851    -0.1072190477
Bq        -1.5843311300     2.0285514381     0.7032372242
Bq        -1.5807911743     1.5937242681    -0.1972697446
Bq        -1.5825611521     1.8111378531     0.2529837398
Bq        -1.5827442154     1.9446719628     0.2995520557
Bq        -1.5820362243     1.8577065288     0.1194506619
Bq        -1.5830982110     1.9881546798     0.3896027525
Bq        -1.5816822287     1.8142238118     0.0293999650
Bq        -1.5834522066     2.0316373968     0.4796534494
Bq        -1.5813282331     1.7707410947    -0.0606507319
Bq        -1.5838062022     2.0751201138     0.5697041463
Bq        -1.5809742376     1.7272583777    -0.1507014288
Bq        -1.5841601977     2.1186028308     0.6597548432
Bq        -1.5806202420     1.6837756607    -0.2407521256
Bq        -1.5823902199     1.9011892458     0.2095013588
Bq        -1.5825732832     2.0347233554     0.2560696746
Bq        -1.5818652920     1.9477579214     0.0759682809
Bq        -1.5829272787     2.0782060724     0.3461203715
Bq        -1.5815112964     1.9042752044    -0.0140824160
Bq        -1.5832812743     2.1216887894     0.4361710684
Bq        -1.5811573009     1.8607924874    -0.1041331129
Bq        -1.5836352699     2.1651715065     0.5262217653
Bq        -1.5808033053     1.8173097704    -0.1941838098
Bq        -1.5839892655     2.2086542235     0.6162724621
Bq        -1.5804493097     1.7738270534    -0.2842345067
Bq        -1.5822192876     1.9912406384     0.1660189777
Bq        -1.5824023509     2.1247747481     0.2125872936
Bq        -1.5816943597     2.0378093141     0.0324858998
Bq        -1.5827563465     2.1682574651     0.3026379905
Bq        -1.5813403642     1.9943265971    -0.0575647971
Bq        -1.5831103420     2.2117401821     0.3926886874
Bq        -1.5809863686     1.9508438801    -0.1476154939
Bq        -1.5834643376     2.2552228991     0.4827393842
Bq        -1.5806323730     1.9073611631    -0.2376661908
Bq        -1.5838183332     2.2987056161     0.5727900811
Bq        -1.5802783774     1.8638784461    -0.3277168877
Bq        -1.5820483553     2.0812920311     0.1225365967
Bq        -1.5822314186     2.2148261408     0.1691049126
Bq        -1.5815234275     2.1278607068    -0.0109964812
Bq        -1.5825854142     2.2583088578     0.2591556094
Bq        -1.5811694319     2.0843779898    -0.1010471781
Bq        -1.5829394098     2.3017915748     0.3492063063
Bq        -1.5808154363     2.0408952728    -0.1910978750
Bq        -1.5832934053     2.3452742918     0.4392570032
Bq        -1.5804614407     1.9974125558    -0.2811485719
Bq        -1.5836474009     2.3887570088     0.5293077001
Bq        -1.5801074452     1.9539298388    -0.3711992687
Bq        -1.5818774230     2.1713434238     0.0790542157
Bq        -1.5820604863     2.3048775334     0.1256225315
Bq        -1.5813524952     2.2179120994    -0.0544788622
Bq        -1.5824144819     2.3483602505     0.2156732284
Bq        -1.5809984996     2.1744293824    -0.1445295591
Bq        -1.5827684775     2.3918429675     0.3057239253
Bq        -1.5806445040     2.1309466654    -0.2345802560
Bq        -1.5831224731     2.4353256845     0.3957746222
Bq        -1.5802905085     2.0874639484    -0.3246309529
Bq        -1.5834764686     2.4788084015     0.4858253191
Bq        -1.5799365129     2.0439812314    -0.4146816498
Bq        -1.5817064908     2.2613948164     0.0355718346
Bq        -1.5818895541     2.3949289261     0.0821401505
Bq        -1.5811815629     2.3079634921    -0.0979612433
Bq        -1.5822435496     2.4384116431     0.1721908474
Bq        -1.5808275673     2.2644807751    -0.1880119402
Bq        -1.5825975452     2.4818943601     0.2622415443
Bq        -1.5804735718     2.2209980581    -0.2780626370
Bq        -1.5829515408     2.5253770771     0.3522922411
Bq        -1.5801195762     2.1775153411    -0.3681133339
Bq        -1.5833055364     2.5688597941     0.4423429380
Bq        -1.5797655806     2.1340326241    -0.4581640308
Bq        -1.5815355585     2.3514462091    -0.0079105464
Bq        -1.5817186218     2.4849803188     0.0386577695
Bq        -1.5810106306     2.3980148848    -0.1414436243
Bq        -1.5820726174     2.5284630358     0.1287084663
Bq        -1.5806566351     2.3545321678    -0.2314943212
Bq        -1.5824266129     2.5719457528     0.2187591632
Bq        -1.5803026395     2.3110494508    -0.3215450181
Bq        -1.5827806085     2.6154284698     0.3088098601
Bq        -1.5799486439     2.2675667338    -0.4115957150
Bq        -1.5831346041     2.6589111868     0.3988605570
Bq        -1.5795946483     2.2240840168    -0.5016464118
Bq        -1.5813646262     2.4414976018    -0.0513929274
Bq        -1.4902660082    -2.0175893147     2.2131699250
Bq        -1.4895580170    -2.1045547487     2.0330685313
Bq        -1.4906200038    -1.9741065977     2.3032206219
Bq        -1.4892040215    -2.1480374658     1.9430178344
Bq        -1.4909739993    -1.9306238807     2.3932713188
Bq        -1.4888500259    -2.1915201828     1.8529671375
Bq        -1.4913279949    -1.8871411637     2.4833220157
Bq        -1.4884960303    -2.2350028998     1.7629164406
Bq        -1.4916819905    -1.8436584467     2.5733727126
Bq        -1.4881420347    -2.2784856168     1.6728657437
Bq        -1.4899120126    -2.0610720317     2.1231192281
Bq        -1.4900950759    -1.9275379221     2.1696875440
Bq        -1.4893870848    -2.0145033561     1.9895861502
Bq        -1.4904490715    -1.8840552051     2.2597382409
Bq        -1.4890330892    -2.0579860731     1.8995354533
Bq        -1.4908030671    -1.8405724881     2.3497889378
Bq        -1.4886790936    -2.1014687901     1.8094847565
Bq        -1.4911570626    -1.7970897711     2.4398396346
Bq        -1.4883250980    -2.1449515071     1.7194340596
Bq        -1.4915110582    -1.7536070540     2.5298903315
Bq        -1.4879711025    -2.1884342241     1.6293833627
Bq        -1.4897410803    -1.9710206391     2.0796368471
Bq        -1.4899241436    -1.8374865294     2.1262051630
Bq        -1.4892161525    -1.9244519634     1.9461037692
Bq        -1.4902781392    -1.7940038124     2.2162558598
Bq        -1.4888621569    -1.9679346804     1.8560530723
Bq        -1.4906321348    -1.7505210954     2.3063065567
Bq        -1.4885081613    -2.0114173974     1.7660023754
Bq        -1.4909861304    -1.7070383784     2.3963572536
Bq        -1.4881541658    -2.0549001144     1.6759516785
Bq        -1.4913401259    -1.6635556614     2.4864079505
Bq        -1.4878001702    -2.0983828314     1.5859009817
Bq        -1.4895701481    -1.8809692464     2.0361544661
Bq        -1.4897532114    -1.7474351367     2.0827227819
Bq        -1.4890452202    -1.8344005707     1.9026213882
Bq        -1.4901072069    -1.7039524197     2.1727734788
Bq        -1.4886912246    -1.8778832877     1.8125706913
Bq        -1.4904612025    -1.6604697027     2.2628241757
Bq        -1.4883372291    -1.9213660047     1.7225199944
Bq        -1.4908151981    -1.6169869857     2.3528748726
Bq        -1.4879832335    -1.9648487217     1.6324692975
Bq        -1.4911691937    -1.5735042687     2.4429255695
Bq        -1.4876292379    -2.0083314388     1.5424186006
Bq        -1.4893992158    -1.7909178537     1.9926720850
Bq        -1.4895822791    -1.6573837441     2.0392404009
Bq        -1.4888742879    -1.7443491781     1.8591390071
Bq        -1.4899362747    -1.6139010270     2.1292910978
Bq        -1.4885202924    -1.7878318951     1.7690883102
Bq        -1.4902902702    -1.5704183100     2.2193417947
Bq        -1.4881662968    -1.8313146121     1.6790376134
Bq        -1.4906442658    -1.5269355930     2.3093924915
Bq        -1.4878123012    -1.8747973291     1.5889869165
Bq        -1.4909982614    -1.4834528760     2.3994431884
Bq        -1.4874583056    -1.9182800461     1.4989362196
Bq        -1.4892282835    -1.7008664611     1.9491897040
Bq        -1.4894113468    -1.5673323514     1.9957580199
Bq        -1.4887033557    -1.6542977854     1.8156566261
Bq        -1.4897653424    -1.5238496344     2.0858087167
Bq        -1.4883493601    -1.6977805024     1.7256059292
Bq        -1.4901193380    -1.4803669174     2.1758594136
Bq        -1.4879953645    -1.7412632194     1.6355552323
Bq        -1.4904733335    -1.4368842004     2.2659101105
Bq        -1.4876413689    -1.7847459364     1.5455045354
Bq        -1.4908273291    -1.3934014834     2.3559608074
Bq        -1.4872873734    -1.8282286534     1.4554538386
Bq        -1.4890573512    -1.6108150684     1.9057073230
Bq        -1.4892404145    -1.4772809587     1.9522756388
Bq        -1.4885324234    -1.5642463927     1.7721742451
Bq        -1.4895944101    -1.4337982417     2.0423263357
Bq        -1.4881784278    -1.6077291097     1.6821235482
Bq        -1.4899484057    -1.3903155247     2.1323770326
Bq        -1.4878244322    -1.6512118267     1.5920728513
Bq        -1.4903024013    -1.3468328077     2.2224277295
Bq        -1.4874704367    -1.6946945437     1.5020221544
Bq        -1.4906563968    -1.3033500907     2.3124784264
Bq        -1.4871164411    -1.7381772607     1.4119714575
Bq        -1.4888864190    -1.5207636757     1.8622249419
Bq        -1.4890694823    -1.3872295660     1.9087932578
Bq        -1.4883614911    -1.4741950001     1.7286918640
Bq        -1.4894234778    -1.3437468490     1.9988439547
Bq        -1.4880074955    -1.5176777171     1.6386411671

1
2
3
4
5
6
7
8
9
10
11
12
13
14
15
16
17
18
19
20
21
22
23
24
25
26
27
28
29
30
31
32
33
34
35
36
37
38
39
40
41
42
43
44
45
46
47
48
49
50
51
52
53
54
55
56
57
58
59
60
61
62
63
64
65
66
67
68
69
70
71
72
73
74
75
76
77
78
79
80
81
82
83
84
85
86
87
88
89
90
91
92
93
94
95
96
97
98
99
100
101
102
103
104
105
106
107
108
109
110
111
112
113
114
115
116
117
118
119
120
121
122
123
124
125
126
127
128
129
130
131
132
133
134
135
136
137
138
139
140
141
142
143
144
145
146
147
148
149
150
151
152
153
154
155
156
157
158
159
160
161
162
163
164
165
166
167
168
169
170
171
172
173
174
175
176
177
178
179
180
181
182
183
184
185
186
187
188
189
190
191
192
193
194
195
196
197
198
199
200
201
202
203
204
205
206
207
208
209
210
211
212
213
214
215
216
217
218
219
220
221
222
223
224
225
226
227
228
229
230
231
232
233
234
235
236

