%nproc=8
%mem=1000MB
# rb3lyp/6-311+g** NMR geom=connectivity

Title

0 1
C    -4.0500558   -0.5771862    0.8136712
H    -5.0263804   -1.0082727    1.0024760
C    -3.9381552    0.6617804    0.2400876
H    -4.8252424    1.2338890   -0.0111295
C    -2.6768410    1.2433246    0.0057578
C    -1.4974121    0.5051527    0.2848253
C    -1.6508332   -0.7338728    0.9404026
H    -0.7713646   -1.2730967    1.2633753
C    -2.8898548   -1.2624035    1.1994307
H    -2.9683706   -2.2124563    1.7152676
C    -2.5773185    2.5963696   -0.4192930
H    -3.4870728    3.1412239   -0.6474055
C    -1.3741895    3.2147896   -0.4364030
H    -1.2997315    4.2742019   -0.6578144
C    -0.1719488    2.4994090   -0.1734588
C    -0.2043917    1.1018437    0.0192689
C     1.0513491    3.2042560   -0.0676222
H     1.0427344    4.2819499   -0.1896997
C     2.1942091    2.5487446    0.2579577
H     3.1168527    3.0912848    0.4334727
C     2.2216473    1.1336562    0.2934990
C     1.0486931    0.3945528    0.0302412
C     3.4483363    0.4614633    0.5573939
H     4.3095794    1.0606054    0.8334846
C     3.5427346   -0.8855926    0.4749463
H     4.4731467   -1.3939704    0.7038822
C     2.4490052   -1.6474447   -0.0196319
C     1.2150704   -1.0057258   -0.3013573
C     0.2531113   -1.7434440   -1.0216591
H    -0.6541356   -1.2535051   -1.3462847
C     0.4494193   -3.0628597   -1.3413779
H    -0.3083162   -3.5944309   -1.9054060
C     1.6251726   -3.7207967   -0.9552541
H     1.7670048   -4.7687404   -1.1927019
C     2.6109872   -3.0144177   -0.3183050
H     3.5525612   -3.4902813   -0.0646367
Bq         4.5201804206    -0.3713921531     0.8510524157
Bq         4.2890706417    -0.4994410843     1.7113963825
Bq         4.5458592849    -0.3571644940     0.7554586416
Bq         4.4174649633    -0.4283027892     1.2334275121
Bq         4.3880950485    -0.3435477542     1.3427618257
Bq         4.4394527771    -0.3150924361     1.1515742775
Bq         4.3624161841    -0.3577754132     1.4383555998
Bq         4.4651316414    -0.3008647771     1.0559805034
Bq         4.3367373198    -0.3720030722     1.5339493739
Bq         4.4908105058    -0.2866371181     0.9603867293
Bq         4.3110584555    -0.3862307313     1.6295431480
Bq         4.5164893701    -0.2724094590     0.8647929552
Bq         4.2853795912    -0.4004583903     1.7251369221
Bq         4.5421682344    -0.2581818000     0.7691991811
Bq         4.4137739128    -0.3293200951     1.2471680516
Bq         4.3844039979    -0.2445650601     1.3565023653
Bq         4.4357617266    -0.2161097421     1.1653148171
Bq         4.3587251336    -0.2587927192     1.4520961394
Bq         4.4614405909    -0.2018820830     1.0697210430
Bq         4.3330462693    -0.2730203782     1.5476899135
Bq         4.4871194552    -0.1876544240     0.9741272689
Bq         4.3073674050    -0.2872480372     1.6432836876
Bq         4.5127983195    -0.1734267650     0.8785334948
Bq         4.2816885406    -0.3014756962     1.7388774617
Bq         4.5384771839    -0.1591991060     0.7829397207
Bq         4.4100828623    -0.2303374011     1.2609085912
Bq         4.3807129474    -0.1455823661     1.3702429048
Bq         4.4320706760    -0.1171270480     1.1790553566
Bq         4.3550340831    -0.1598100251     1.4658366789
Bq         4.4577495404    -0.1028993890     1.0834615825
Bq         4.3293552188    -0.1740376842     1.5614304530
Bq         4.4834284047    -0.0886717300     0.9878678085
Bq         4.3036763544    -0.1882653432     1.6570242271
Bq         4.5091072690    -0.0744440710     0.8922740344
Bq         4.2779974901    -0.2024930022     1.7526180012
Bq         4.5347861333    -0.0602164119     0.7966802603
Bq         4.4063918117    -0.1313547071     1.2746491307
Bq         4.3770218969    -0.0465996721     1.3839834444
Bq         4.4283796255    -0.0181443540     1.1927958962
Bq         4.3513430325    -0.0608273311     1.4795772185
Bq         4.4540584898    -0.0039166950     1.0972021221
Bq         4.3256641682    -0.0750549901     1.5751709926
Bq         4.4797373542     0.0103109641     1.0016083480
Bq         4.2999853039    -0.0892826491     1.6707647667
Bq         4.5054162185     0.0245386231     0.9060145739
Bq         4.2743064396    -0.1035103082     1.7663585408
Bq         4.5310950828     0.0387662821     0.8104207998
Bq         4.4027007612    -0.0323720130     1.2883896703
Bq         4.3733308463     0.0523830220     1.3977239840
Bq         4.4246885750     0.0808383400     1.2065364358
Bq         4.3476519820     0.0381553629     1.4933177580
Bq         4.4503674393     0.0950659991     1.1109426617
Bq         4.3219731177     0.0239277039     1.5889115321
Bq         4.4760463036     0.1092936581     1.0153488876
Bq         4.2962942534     0.0097000449     1.6845053062
Bq         4.5017251679     0.1235213171     0.9197551135
Bq         4.2706153890    -0.0045276141     1.7800990803
Bq         4.5274040323     0.1377489761     0.8241613394
Bq         4.3990097106     0.0666106810     1.3021302099
Bq         4.3696397958     0.1513657160     1.4114645235
Bq         4.4209975244     0.1798210341     1.2202769753
Bq         4.3439609315     0.1371380570     1.5070582976
Bq         4.4466763888     0.1940486931     1.1246832012
Bq         4.3182820671     0.1229103980     1.6026520717
Bq         4.4723552531     0.2082763521     1.0290894271
Bq         4.2926032028     0.1086827389     1.6982458458
Bq         4.4980341174     0.2225040112     0.9334956530
Bq         4.2669243385     0.0944550799     1.7938396199
Bq         4.5237129817     0.2367316702     0.8379018789
Bq         4.3953186601     0.1655933750     1.3158707494
Bq         4.3659487453     0.2503484100     1.4252050631
Bq         4.4173064739     0.2788037281     1.2340175149
Bq         4.3402698809     0.2361207510     1.5207988372
Bq         4.4429853382     0.2930313871     1.1384237408
Bq         4.3145910166     0.2218930920     1.6163926113
Bq         4.4686642025     0.3072590462     1.0428299667
Bq         4.2889121523     0.2076654330     1.7119863854
Bq         4.4943430669     0.3214867052     0.9472361926
Bq         4.2632332880     0.1934377739     1.8075801594
Bq         4.5200219312     0.3357143642     0.8516424185
Bq         4.3916276096     0.2645760691     1.3296112890
Bq         4.3622576947     0.3493311041     1.4389456026
Bq         4.4136154234     0.3777864221     1.2477580544
Bq         4.3365788304     0.3351034451     1.5345393767
Bq         4.4392942877     0.3920140812     1.1521642803
Bq         4.3108999661     0.3208757860     1.6301331508
Bq         4.4649731520     0.4062417402     1.0565705062
Bq         4.2852211018     0.3066481270     1.7257269249
Bq         4.4906520163     0.4204693992     0.9609767322
Bq         4.2595422374     0.2924204680     1.8213206990
Bq         4.5163308807     0.4346970583     0.8653829581
Bq         4.3879365590     0.3635587631     1.3433518285
Bq         4.3585666442     0.4483137981     1.4526861422
Bq         4.4099243728     0.4767691162     1.2614985940
Bq         4.3328877799     0.4340861391     1.5482799163
Bq         4.4356032372     0.4909967752     1.1659048199
Bq         4.3072089155     0.4198584801     1.6438736904
Bq         4.4612821015     0.5052244342     1.0703110458
Bq         4.2815300512     0.4056308210     1.7394674645
Bq         4.4869609658     0.5194520933     0.9747172717
Bq         4.2558511869     0.3914031620     1.8350612386
Bq         4.5126398301     0.5336797523     0.8791234976
Bq         4.3842455085     0.4625414571     1.3570923681
Bq         4.3548755936     0.5472964922     1.4664266817
Bq         4.4062333223     0.5757518102     1.2752391336
Bq         4.3291967293     0.5330688331     1.5620204558
Bq         4.4319121866     0.5899794692     1.1796453595
Bq         4.3035178650     0.5188411741     1.6576142299
Bq         4.4575910509     0.6042071283     1.0840515854
Bq         4.2778390007     0.5046135151     1.7532080040
Bq         4.4832699153     0.6184347873     0.9884578113
Bq         4.2521601364     0.4903858560     1.8488017781
Bq         4.5089487796     0.6326624463     0.8928640372
Bq         4.3805544580     0.5615241512     1.3708329077
Bq         4.3511845431     0.6462791862     1.4801672213
Bq         4.4025422718     0.6747345042     1.2889796731
Bq         4.3255056788     0.6320515272     1.5757609954
Bq         4.4282211361     0.6889621633     1.1933858990
Bq         4.2998268145     0.6178238681     1.6713547695
Bq         4.4539000004     0.7031898223     1.0977921249
Bq         4.2741479501     0.6035962091     1.7669485436
Bq         4.4795788647     0.7174174813     1.0021983508
Bq         4.2484690858     0.5893685501     1.8625423177
Bq         4.5052577290     0.7316451404     0.9066045767
Bq         4.3768634074     0.6605068452     1.3845734472
Bq         4.3474934926     0.7452618802     1.4939077609
Bq         4.3988512212     0.7737171983     1.3027202127
Bq         4.3218146283     0.7310342212     1.5895015350
Bq         4.4245300855     0.7879448573     1.2071264386
Bq         4.2961357639     0.7168065622     1.6850953091
Bq         4.4502089499     0.8021725163     1.1115326645
Bq         4.2704568996     0.7025789031     1.7806890831
Bq         4.4758878142     0.8164001754     1.0159388904
Bq         4.2447780353     0.6883512441     1.8762828572
Bq         4.5015666785     0.8306278344     0.9203451163
Bq         4.3731723569     0.7594895393     1.3983139868
Bq         4.3438024420     0.8442445743     1.5076483004
Bq         4.3951601707     0.8726998923     1.3164607522
Bq         4.3181235777     0.8300169152     1.6032420745
Bq         4.4208390350     0.8869275513     1.2208669781
Bq         4.2924447134     0.8157892562     1.6988358486
Bq         4.4465178993     0.9011552104     1.1252732040
Bq         4.2667658491     0.8015615972     1.7944296227
Bq         4.4721967637     0.9153828694     1.0296794299
Bq         4.2410869848     0.7873339381     1.8900233968
Bq         4.4978756280     0.9296105284     0.9340856559
Bq         4.3694813064     0.8584722333     1.4120545263
Bq         4.3401113915     0.9432272683     1.5213888400
Bq         4.3914691202     0.9716825864     1.3302012918
Bq         4.3144325272     0.9289996093     1.6169826141
Bq         4.4171479845     0.9859102454     1.2346075177
Bq         4.2887536629     0.9147719502     1.7125763882
Bq         4.4428268488     1.0001379044     1.1390137436
Bq         4.2630747985     0.9005442912     1.8081701623
Bq         4.4685057131     1.0143655634     1.0434199695
Bq         4.2373959342     0.8863166322     1.9037639364
Bq         4.4941845774     1.0285932225     0.9478261954
Bq         4.3657902558     0.9574549273     1.4257950659
Bq         4.3364203410     1.0422099623     1.5351293795
Bq         4.3877780696     1.0706652804     1.3439418314
Bq         4.3107414767     1.0279823033     1.6307231536
Bq         4.4134569339     1.0848929394     1.2483480573
Bq         4.2850626123     1.0137546443     1.7263169277
Bq         4.4391357983     1.0991205984     1.1527542832
Bq         4.2593837480     0.9995269852     1.8219107018
Bq         4.4648146626     1.1133482575     1.0571605091
Bq         4.2337048837     0.9852993262     1.9175044759
Bq         4.4904935269     1.1275759165     0.9615667350
Bq         4.3620992053     1.0564376214     1.4395356054
Bq         4.3327292904     1.1411926564     1.5488699191
Bq         4.3840870191     1.1696479744     1.3576823709
Bq         4.3070504261     1.1269649973     1.6444636932
Bq         4.4097658834     1.1838756335     1.2620885968
Bq         4.2813715618     1.1127373383     1.7400574673
Bq         4.4354447477     1.1981032925     1.1664948227
Bq         4.2556926975     1.0985096793     1.8356512414
Bq         4.4611236121     1.2123309515     1.0709010486
Bq         4.2300138331     1.0842820203     1.9312450155
Bq         4.4868024764     1.2265586105     0.9753072745
Bq         4.3584081548     1.1554203154     1.4532761450
Bq         4.3290382399     1.2401753504     1.5626104587
Bq         4.3803959685     1.2686306685     1.3714229105
Bq         4.3033593756     1.2259476914     1.6582042328
Bq         4.4060748329     1.2828583275     1.2758291364
Bq         4.2776805113     1.2117200323     1.7537980068
Bq         4.4317536972     1.2970859865     1.1802353623
Bq         4.2520016469     1.1974923733     1.8493917809
Bq         4.4574325615     1.3113136455     1.0846415882
Bq         4.2263227826     1.1832647143     1.9449855550
Bq         4.4831114258     1.3255413046     0.9890478141
Bq         4.3547171042     1.2544030094     1.4670166846
Bq         4.3253471894     1.3391580444     1.5763509982
Bq         4.3767049180     1.3676133625     1.3851634500
Bq         4.2996683250     1.3249303854     1.6719447723
Bq         4.4023837823     1.3818410215     1.2895696759
Bq         4.2739894607     1.3107027264     1.7675385464
Bq         4.4280626467     1.3960686806     1.1939759018
Bq         4.2483105964     1.2964750674     1.8631323205
Bq         4.4537415110     1.4102963396     1.0983821277
Bq         4.2226317321     1.2822474083     1.9587260946

1
2
3
4
5
6
7
8
9
10
11
12
13
14
15
16
17
18
19
20
21
22
23
24
25
26
27
28
29
30
31
32
33
34
35
36
37
38
39
40
41
42
43
44
45
46
47
48
49
50
51
52
53
54
55
56
57
58
59
60
61
62
63
64
65
66
67
68
69
70
71
72
73
74
75
76
77
78
79
80
81
82
83
84
85
86
87
88
89
90
91
92
93
94
95
96
97
98
99
100
101
102
103
104
105
106
107
108
109
110
111
112
113
114
115
116
117
118
119
120
121
122
123
124
125
126
127
128
129
130
131
132
133
134
135
136
137
138
139
140
141
142
143
144
145
146
147
148
149
150
151
152
153
154
155
156
157
158
159
160
161
162
163
164
165
166
167
168
169
170
171
172
173
174
175
176
177
178
179
180
181
182
183
184
185
186
187
188
189
190
191
192
193
194
195
196
197
198
199
200
201
202
203
204
205
206
207
208
209
210
211
212
213
214
215
216
217
218
219
220
221
222
223
224
225
226
227
228
229
230
231
232
233
234
235
236

