%nproc=8
%mem=1000MB
# rb3lyp/6-311+g** NMR geom=connectivity

Title

0 1
C    -4.0500558   -0.5771862    0.8136712
H    -5.0263804   -1.0082727    1.0024760
C    -3.9381552    0.6617804    0.2400876
H    -4.8252424    1.2338890   -0.0111295
C    -2.6768410    1.2433246    0.0057578
C    -1.4974121    0.5051527    0.2848253
C    -1.6508332   -0.7338728    0.9404026
H    -0.7713646   -1.2730967    1.2633753
C    -2.8898548   -1.2624035    1.1994307
H    -2.9683706   -2.2124563    1.7152676
C    -2.5773185    2.5963696   -0.4192930
H    -3.4870728    3.1412239   -0.6474055
C    -1.3741895    3.2147896   -0.4364030
H    -1.2997315    4.2742019   -0.6578144
C    -0.1719488    2.4994090   -0.1734588
C    -0.2043917    1.1018437    0.0192689
C     1.0513491    3.2042560   -0.0676222
H     1.0427344    4.2819499   -0.1896997
C     2.1942091    2.5487446    0.2579577
H     3.1168527    3.0912848    0.4334727
C     2.2216473    1.1336562    0.2934990
C     1.0486931    0.3945528    0.0302412
C     3.4483363    0.4614633    0.5573939
H     4.3095794    1.0606054    0.8334846
C     3.5427346   -0.8855926    0.4749463
H     4.4731467   -1.3939704    0.7038822
C     2.4490052   -1.6474447   -0.0196319
C     1.2150704   -1.0057258   -0.3013573
C     0.2531113   -1.7434440   -1.0216591
H    -0.6541356   -1.2535051   -1.3462847
C     0.4494193   -3.0628597   -1.3413779
H    -0.3083162   -3.5944309   -1.9054060
C     1.6251726   -3.7207967   -0.9552541
H     1.7670048   -4.7687404   -1.1927019
C     2.6109872   -3.0144177   -0.3183050
H     3.5525612   -3.4902813   -0.0646367
Bq        -5.0863188813     0.2771782190     1.2020093542
Bq        -5.0849028990     0.1032473510     0.8418065666
Bq        -5.0866728768     0.3206609360     1.2920600511
Bq        -5.0845489034     0.0597646340     0.7517558698
Bq        -5.0870268724     0.3641436530     1.3821107479
Bq        -5.0841949078     0.0162819170     0.6617051729
Bq        -5.0873808680     0.4076263700     1.4721614448
Bq        -5.0838409122    -0.0272008000     0.5716544760
Bq        -5.0856108901     0.1902127850     1.0219079604
Bq        -5.0857939534     0.3237468947     1.0684762763
Bq        -5.0850859623     0.2367814607     0.8883748825
Bq        -5.0861479490     0.3672296117     1.1585269731
Bq        -5.0847319667     0.1932987437     0.7983241856
Bq        -5.0865019446     0.4107123287     1.2485776700
Bq        -5.0843779711     0.1498160267     0.7082734887
Bq        -5.0868559401     0.4541950457     1.3386283669
Bq        -5.0840239755     0.1063333097     0.6182227918
Bq        -5.0872099357     0.4976777627     1.4286790638
Bq        -5.0836699800     0.0628505927     0.5281720950
Bq        -5.0854399578     0.2802641777     0.9784255794
Bq        -5.0856230211     0.4137982874     1.0249938952
Bq        -5.0849150300     0.3268328534     0.8448925015
Bq        -5.0859770167     0.4572810044     1.1150445921
Bq        -5.0845610344     0.2833501364     0.7548418046
Bq        -5.0863310123     0.5007637214     1.2050952890
Bq        -5.0842070388     0.2398674194     0.6647911077
Bq        -5.0866850079     0.5442464384     1.2951459859
Bq        -5.0838530433     0.1963847023     0.5747404108
Bq        -5.0870390034     0.5877291554     1.3851966828
Bq        -5.0834990477     0.1529019853     0.4846897139
Bq        -5.0852690256     0.3703155704     0.9349431983
Bq        -5.0854520889     0.5038496800     0.9815115142
Bq        -5.0847440977     0.4168842460     0.8014101204
Bq        -5.0858060844     0.5473323970     1.0715622111
Bq        -5.0843901021     0.3734015290     0.7113594235
Bq        -5.0861600800     0.5908151140     1.1616129080
Bq        -5.0840361066     0.3299188120     0.6213087267
Bq        -5.0865140756     0.6342978311     1.2516636048
Bq        -5.0836821110     0.2864360950     0.5312580298
Bq        -5.0868680712     0.6777805481     1.3417143017
Bq        -5.0833281154     0.2429533780     0.4412073329
Bq        -5.0850980933     0.4603669630     0.8914608173
Bq        -5.0852811566     0.5939010727     0.9380291332
Bq        -5.0845731654     0.5069356387     0.7579277394
Bq        -5.0856351522     0.6373837897     1.0280798300
Bq        -5.0842191699     0.4634529217     0.6678770425
Bq        -5.0859891477     0.6808665067     1.1181305269
Bq        -5.0838651743     0.4199702047     0.5778263456
Bq        -5.0863431433     0.7243492237     1.2081812238
Bq        -5.0835111787     0.3764874877     0.4877756487
Bq        -5.0866971389     0.7678319407     1.2982319207
Bq        -5.0831571831     0.3330047707     0.3977249519
Bq        -5.0849271610     0.5504183557     0.8479784363
Bq        -5.0851102243     0.6839524654     0.8945467521
Bq        -5.0844022332     0.5969870314     0.7144453584
Bq        -5.0854642199     0.7274351824     0.9845974490
Bq        -5.0840482376     0.5535043144     0.6243946615
Bq        -5.0858182155     0.7709178994     1.0746481459
Bq        -5.0836942420     0.5100215974     0.5343439646
Bq        -5.0861722110     0.8144006164     1.1646988428
Bq        -5.0833402464     0.4665388804     0.4442932677
Bq        -5.0865262066     0.8578833334     1.2547495397
Bq        -5.0829862509     0.4230561634     0.3542425708
Bq        -5.0847562287     0.6404697484     0.8044960552
Bq        -5.0849392920     0.7740038581     0.8510643711
Bq        -5.0842313009     0.6870384240     0.6709629773
Bq        -5.0852932876     0.8174865751     0.9411150680
Bq        -5.0838773053     0.6435557070     0.5809122804
Bq        -5.0856472832     0.8609692921     1.0311657649
Bq        -5.0835233097     0.6000729900     0.4908615836
Bq        -5.0860012788     0.9044520091     1.1212164617
Bq        -5.0831693142     0.5565902730     0.4008108867
Bq        -5.0863552743     0.9479347261     1.2112671586
Bq        -5.0828153186     0.5131075560     0.3107601898
Bq        -5.0845852965     0.7305211410     0.7610136742
Bq        -5.0847683598     0.8640552507     0.8075819901
Bq        -5.0840603686     0.7770898167     0.6274805963
Bq        -5.0851223553     0.9075379677     0.8976326869
Bq        -5.0837063730     0.7336070997     0.5374298994
Bq        -5.0854763509     0.9510206847     0.9876833838
Bq        -5.0833523775     0.6901243827     0.4473792025
Bq        -5.0858303465     0.9945034017     1.0777340807
Bq        -5.0829983819     0.6466416657     0.3573285057
Bq        -5.0861843421     1.0379861187     1.1677847776
Bq        -5.0826443863     0.6031589487     0.2672778088
Bq        -5.0844143642     0.8205725337     0.7175312932
Bq        -5.0845974275     0.9541066434     0.7640996090
Bq        -5.0838894363     0.8671412094     0.5839982153
Bq        -5.0849514231     0.9975893604     0.8541503059
Bq        -5.0835354408     0.8236584924     0.4939475184
Bq        -5.0853054186     1.0410720774     0.9442010028
Bq        -5.0831814452     0.7801757754     0.4038968215
Bq        -5.0856594142     1.0845547944     1.0342516997
Bq        -5.0828274496     0.7366930584     0.3138461246
Bq        -5.0860134098     1.1280375114     1.1243023966
Bq        -5.0824734540     0.6932103414     0.2237954277
Bq        -5.0842434319     0.9106239264     0.6740489121
Bq        -5.0844264952     1.0441580361     0.7206172280
Bq        -5.0837185041     0.9571926021     0.5405158342
Bq        -5.0847804908     1.0876407531     0.8106679249
Bq        -5.0833645085     0.9137098850     0.4504651374
Bq        -5.0851344864     1.1311234701     0.9007186218
Bq        -5.0830105129     0.8702271680     0.3604144405
Bq        -5.0854884819     1.1746061871     0.9907693186
Bq        -5.0826565173     0.8267444510     0.2703637436
Bq        -5.0858424775     1.2180889041     1.0808200155
Bq        -5.0823025218     0.7832617340     0.1803130467
Bq        -5.0840724996     1.0006753191     0.6305665311
Bq        -5.0842555629     1.1342094287     0.6771348470
Bq        -5.0835475718     1.0472439947     0.4970334532
Bq        -5.0846095585     1.1776921457     0.7671855438
Bq        -5.0831935762     1.0037612777     0.4069827563
Bq        -5.0849635541     1.2211748627     0.8572362407
Bq        -5.0828395806     0.9602785607     0.3169320594
Bq        -5.0853175497     1.2646575797     0.9472869376
Bq        -5.0824855851     0.9167958437     0.2268813626
Bq        -5.0856715452     1.3081402968     1.0373376345
Bq        -5.0821315895     0.8733131267     0.1368306657
Bq        -5.0839015674     1.0907267117     0.5870841501
Bq        -5.0840846307     1.2242608214     0.6336524659
Bq        -5.0833766395     1.1372953874     0.4535510722
Bq        -5.0844386262     1.2677435384     0.7237031628
Bq        -5.0830226439     1.0938126704     0.3635003753
Bq        -5.0847926218     1.3112262554     0.8137538597
Bq        -5.0826686484     1.0503299534     0.2734496784
Bq        -5.0851466174     1.3547089724     0.9038045566
Bq        -5.0823146528     1.0068472364     0.1833989815
Bq        -5.0855006130     1.3981916894     0.9938552535
Bq        -5.0819606572     0.9633645194     0.0933482846
Bq        -5.0837306351     1.1807781044     0.5436017691
Bq        -5.0839136984     1.3143122141     0.5901700849
Bq        -5.0832057072     1.2273467801     0.4100686911
Bq        -5.0842676940     1.3577949311     0.6802207818
Bq        -5.0828517117     1.1838640631     0.3200179943
Bq        -5.0846216895     1.4012776481     0.7702714787
Bq        -5.0824977161     1.1403813461     0.2299672974
Bq        -5.0849756851     1.4447603651     0.8603221755
Bq        -5.0821437205     1.0968986291     0.1399166005
Bq        -5.0853296807     1.4882430821     0.9503728724
Bq        -5.0817897249     1.0534159120     0.0498659036
Bq        -5.0835597028     1.2708294971     0.5001193880
Bq        -5.0837427661     1.4043636067     0.5466877039
Bq        -5.0830347750     1.3173981727     0.3665863101
Bq        -5.0840967617     1.4478463237     0.6367384008
Bq        -5.0826807794     1.2739154557     0.2765356132
Bq        -5.0844507573     1.4913290408     0.7267890976
Bq        -5.0823267838     1.2304327387     0.1864849163
Bq        -5.0848047528     1.5348117578     0.8168397945
Bq        -5.0819727882     1.1869500217     0.0964342195
Bq        -5.0851587484     1.5782944748     0.9068904914
Bq        -5.0816187927     1.1434673047     0.0063835226
Bq        -5.0833887705     1.3608808897     0.4566370070
Bq        -5.0835718338     1.4944149994     0.5032053228
Bq        -5.0828638427     1.4074495654     0.3231039291
Bq        -5.0839258294     1.5378977164     0.5932560197
Bq        -5.0825098471     1.3639668484     0.2330532322
Bq        -5.0842798250     1.5813804334     0.6833067166
Bq        -5.0821558515     1.3204841314     0.1430025353
Bq        -5.0846338206     1.6248631504     0.7733574135
Bq        -5.0818018560     1.2770014144     0.0529518384
Bq        -5.0849878161     1.6683458674     0.8634081104
Bq        -5.0814478604     1.2335186974    -0.0370988585
Bq        -5.0832178383     1.4509322824     0.4131546260
Bq        -5.0834009016     1.5844663921     0.4597229418
Bq        -5.0826929104     1.4975009581     0.2796215480
Bq        -5.0837548971     1.6279491091     0.5497736387
Bq        -5.0823389148     1.4540182411     0.1895708512
Bq        -5.0841088927     1.6714318261     0.6398243356
Bq        -5.0819849193     1.4105355241     0.0995201543
Bq        -5.0844628883     1.7149145431     0.7298750325
Bq        -5.0816309237     1.3670528071     0.0094694574
Bq        -5.0848168839     1.7583972601     0.8199257293
Bq        -5.0812769281     1.3235700901    -0.0805812395
Bq        -5.0830469060     1.5409836751     0.3696722449
Bq        -5.0832299693     1.6745177848     0.4162405608
Bq        -5.0825219781     1.5875523507     0.2361391670
Bq        -5.0835839649     1.7180005018     0.5062912577
Bq        -5.0821679826     1.5440696337     0.1460884701
Bq        -5.0839379604     1.7614832188     0.5963419545
Bq        -5.0818139870     1.5005869167     0.0560377732
Bq        -5.0842919560     1.8049659358     0.6863926514
Bq        -5.0814599914     1.4571041997    -0.0340129236
Bq        -5.0846459516     1.8484486528     0.7764433483
Bq        -5.0811059958     1.4136214827    -0.1240636205
Bq        -5.0828759737     1.6310350678     0.3261898639
Bq        -5.0830590370     1.7645691774     0.3727581797
Bq        -5.0823510459     1.6776037434     0.1926567860
Bq        -5.0834130326     1.8080518944     0.4628088766
Bq        -5.0819970503     1.6341210264     0.1026060891
Bq        -5.0837670282     1.8515346114     0.5528595735
Bq        -5.0816430547     1.5906383094     0.0125553922
Bq        -5.0841210237     1.8950173284     0.6429102704
Bq        -5.0812890591     1.5471555924    -0.0774953047
Bq        -5.0844750193     1.9385000454     0.7329609673
Bq        -5.0809350636     1.5036728754    -0.1675460016
Bq        -5.0827050414     1.7210864604     0.2827074829
Bq        -5.0828881047     1.8546205701     0.3292757987
Bq        -5.0821801136     1.7676551361     0.1491744049
Bq        -5.0832421003     1.8981032871     0.4193264956
Bq        -5.0818261180     1.7241724191     0.0591237081

1
2
3
4
5
6
7
8
9
10
11
12
13
14
15
16
17
18
19
20
21
22
23
24
25
26
27
28
29
30
31
32
33
34
35
36
37
38
39
40
41
42
43
44
45
46
47
48
49
50
51
52
53
54
55
56
57
58
59
60
61
62
63
64
65
66
67
68
69
70
71
72
73
74
75
76
77
78
79
80
81
82
83
84
85
86
87
88
89
90
91
92
93
94
95
96
97
98
99
100
101
102
103
104
105
106
107
108
109
110
111
112
113
114
115
116
117
118
119
120
121
122
123
124
125
126
127
128
129
130
131
132
133
134
135
136
137
138
139
140
141
142
143
144
145
146
147
148
149
150
151
152
153
154
155
156
157
158
159
160
161
162
163
164
165
166
167
168
169
170
171
172
173
174
175
176
177
178
179
180
181
182
183
184
185
186
187
188
189
190
191
192
193
194
195
196
197
198
199
200
201
202
203
204
205
206
207
208
209
210
211
212
213
214
215
216
217
218
219
220
221
222
223
224
225
226
227
228
229
230
231
232
233
234
235
236

