%nproc=8
%mem=1000MB
# rb3lyp/6-311+g** NMR geom=connectivity

Title

0 1
C    -4.0500558   -0.5771862    0.8136712
H    -5.0263804   -1.0082727    1.0024760
C    -3.9381552    0.6617804    0.2400876
H    -4.8252424    1.2338890   -0.0111295
C    -2.6768410    1.2433246    0.0057578
C    -1.4974121    0.5051527    0.2848253
C    -1.6508332   -0.7338728    0.9404026
H    -0.7713646   -1.2730967    1.2633753
C    -2.8898548   -1.2624035    1.1994307
H    -2.9683706   -2.2124563    1.7152676
C    -2.5773185    2.5963696   -0.4192930
H    -3.4870728    3.1412239   -0.6474055
C    -1.3741895    3.2147896   -0.4364030
H    -1.2997315    4.2742019   -0.6578144
C    -0.1719488    2.4994090   -0.1734588
C    -0.2043917    1.1018437    0.0192689
C     1.0513491    3.2042560   -0.0676222
H     1.0427344    4.2819499   -0.1896997
C     2.1942091    2.5487446    0.2579577
H     3.1168527    3.0912848    0.4334727
C     2.2216473    1.1336562    0.2934990
C     1.0486931    0.3945528    0.0302412
C     3.4483363    0.4614633    0.5573939
H     4.3095794    1.0606054    0.8334846
C     3.5427346   -0.8855926    0.4749463
H     4.4731467   -1.3939704    0.7038822
C     2.4490052   -1.6474447   -0.0196319
C     1.2150704   -1.0057258   -0.3013573
C     0.2531113   -1.7434440   -1.0216591
H    -0.6541356   -1.2535051   -1.3462847
C     0.4494193   -3.0628597   -1.3413779
H    -0.3083162   -3.5944309   -1.9054060
C     1.6251726   -3.7207967   -0.9552541
H     1.7670048   -4.7687404   -1.1927019
C     2.6109872   -3.0144177   -0.3183050
H     3.5525612   -3.4902813   -0.0646367
Bq        -0.7472144965    -2.7779690153    -1.6612471302
Bq        -1.1059703706    -3.0175098753    -0.8713646078
Bq        -0.7073527327    -2.7513533642    -1.7490118549
Bq        -0.9066615516    -2.8844316197    -1.3101882313
Bq        -0.9575297888    -2.8146542881    -1.1981902562
Bq        -0.8778062612    -2.7614229859    -1.3737197056
Bq        -0.9973915526    -2.8412699392    -1.1104255315
Bq        -0.8379444974    -2.7348073348    -1.4614844303
Bq        -1.0372533164    -2.8678855903    -1.0226608068
Bq        -0.7980827336    -2.7081916837    -1.5492491550
Bq        -1.0771150802    -2.8945012414    -0.9348960820
Bq        -0.7582209699    -2.6815760326    -1.6370138797
Bq        -1.1169768439    -2.9211168925    -0.8471313573
Bq        -0.7183592061    -2.6549603815    -1.7247786045
Bq        -0.9176680250    -2.7880386370    -1.2859549809
Bq        -0.9685362622    -2.7182613054    -1.1739570057
Bq        -0.8888127346    -2.6650300032    -1.3494864551
Bq        -1.0083980260    -2.7448769565    -1.0861922810
Bq        -0.8489509708    -2.6384143521    -1.4372511799
Bq        -1.0482597897    -2.7714926076    -0.9984275563
Bq        -0.8090892070    -2.6117987010    -1.5250159046
Bq        -1.0881215535    -2.7981082587    -0.9106628316
Bq        -0.7692274432    -2.5851830499    -1.6127806293
Bq        -1.1279833173    -2.8247239098    -0.8228981069
Bq        -0.7293656794    -2.5585673988    -1.7005453540
Bq        -0.9286744984    -2.6916456543    -1.2617217304
Bq        -0.9795427355    -2.6218683227    -1.1497237553
Bq        -0.8998192080    -2.5686370205    -1.3252532047
Bq        -1.0194044993    -2.6484839738    -1.0619590305
Bq        -0.8599574442    -2.5420213694    -1.4130179294
Bq        -1.0592662631    -2.6750996249    -0.9741943058
Bq        -0.8200956804    -2.5154057183    -1.5007826541
Bq        -1.0991280269    -2.7017152760    -0.8864295811
Bq        -0.7802339166    -2.4887900672    -1.5885473788
Bq        -1.1389897907    -2.7283309271    -0.7986648564
Bq        -0.7403721528    -2.4621744160    -1.6763121035
Bq        -0.9396809718    -2.5952526716    -1.2374884800
Bq        -0.9905492089    -2.5254753400    -1.1254905048
Bq        -0.9108256813    -2.4722440378    -1.3010199542
Bq        -1.0304109727    -2.5520909911    -1.0377257801
Bq        -0.8709639176    -2.4456283867    -1.3887846789
Bq        -1.0702727365    -2.5787066422    -0.9499610554
Bq        -0.8311021538    -2.4190127355    -1.4765494037
Bq        -1.1101345003    -2.6053222933    -0.8621963307
Bq        -0.7912403900    -2.3923970844    -1.5643141284
Bq        -1.1499962641    -2.6319379444    -0.7744316060
Bq        -0.7513786262    -2.3657814333    -1.6520788531
Bq        -0.9506874451    -2.4988596889    -1.2132552295
Bq        -1.0015556823    -2.4290823573    -1.1012572543
Bq        -0.9218321547    -2.3758510550    -1.2767867038
Bq        -1.0414174461    -2.4556980084    -1.0134925296
Bq        -0.8819703909    -2.3492354039    -1.3645514285
Bq        -1.0812792099    -2.4823136595    -0.9257278049
Bq        -0.8421086271    -2.3226197528    -1.4523161532
Bq        -1.1211409737    -2.5089293106    -0.8379630802
Bq        -0.8022468634    -2.2960041017    -1.5400808779
Bq        -1.1610027374    -2.5355449617    -0.7501983555
Bq        -0.7623850996    -2.2693884506    -1.6278456026
Bq        -0.9616939185    -2.4024667062    -1.1890219791
Bq        -1.0125621557    -2.3326893746    -1.0770240039
Bq        -0.9328386281    -2.2794580723    -1.2525534533
Bq        -1.0524239194    -2.3593050257    -0.9892592792
Bq        -0.8929768643    -2.2528424212    -1.3403181780
Bq        -1.0922856832    -2.3859206768    -0.9014945545
Bq        -0.8531151005    -2.2262267701    -1.4280829027
Bq        -1.1321474470    -2.4125363279    -0.8137298298
Bq        -0.8132533367    -2.1996111190    -1.5158476275
Bq        -1.1720092108    -2.4391519790    -0.7259651050
Bq        -0.7733915729    -2.1729954679    -1.6036123522
Bq        -0.9727003919    -2.3060737234    -1.1647887286
Bq        -1.0235686290    -2.2362963918    -1.0527907534
Bq        -0.9438451015    -2.1830650896    -1.2283202029
Bq        -1.0634303928    -2.2629120429    -0.9650260287
Bq        -0.9039833377    -2.1564494385    -1.3160849276
Bq        -1.1032921566    -2.2895276941    -0.8772613040
Bq        -0.8641215739    -2.1298337874    -1.4038496523
Bq        -1.1431539204    -2.3161433452    -0.7894965793
Bq        -0.8242598101    -2.1032181363    -1.4916143770
Bq        -1.1830156842    -2.3427589963    -0.7017318546
Bq        -0.7843980463    -2.0766024852    -1.5793791017
Bq        -0.9837068652    -2.2096807407    -1.1405554781
Bq        -1.0345751024    -2.1399034091    -1.0285575030
Bq        -0.9548515748    -2.0866721069    -1.2040869524
Bq        -1.0744368662    -2.1665190602    -0.9407927783
Bq        -0.9149898110    -2.0600564558    -1.2918516771
Bq        -1.1142986300    -2.1931347113    -0.8530280535
Bq        -0.8751280473    -2.0334408047    -1.3796164018
Bq        -1.1541603938    -2.2197503624    -0.7652633288
Bq        -0.8352662835    -2.0068251536    -1.4673811265
Bq        -1.1940221576    -2.2463660136    -0.6774986041
Bq        -0.7954045197    -1.9802095025    -1.5551458512
Bq        -0.9947133386    -2.1132877580    -1.1163222277
Bq        -1.0455815758    -2.0435104264    -1.0043242525
Bq        -0.9658580482    -1.9902791242    -1.1798537019
Bq        -1.0854433396    -2.0701260775    -0.9165595278
Bq        -0.9259962844    -1.9636634731    -1.2676184267
Bq        -1.1253051034    -2.0967417286    -0.8287948031
Bq        -0.8861345206    -1.9370478220    -1.3553831514
Bq        -1.1651668671    -2.1233573797    -0.7410300784
Bq        -0.8462727568    -1.9104321709    -1.4431478761
Bq        -1.2050286309    -2.1499730308    -0.6532653537
Bq        -0.8064109931    -1.8838165198    -1.5309126008
Bq        -1.0057198120    -2.0168947753    -1.0920889772
Bq        -1.0565880491    -1.9471174437    -0.9800910021
Bq        -0.9768645216    -1.8938861415    -1.1556204515
Bq        -1.0964498129    -1.9737330948    -0.8923262773
Bq        -0.9370027578    -1.8672704904    -1.2433851762
Bq        -1.1363115767    -2.0003487459    -0.8045615526
Bq        -0.8971409940    -1.8406548393    -1.3311499009
Bq        -1.1761733405    -2.0269643970    -0.7167968279
Bq        -0.8572792302    -1.8140391882    -1.4189146256
Bq        -1.2160351043    -2.0535800481    -0.6290321032
Bq        -0.8174174664    -1.7874235371    -1.5066793503
Bq        -1.0167262854    -1.9205017926    -1.0678557268
Bq        -1.0675945225    -1.8507244610    -0.9558577516
Bq        -0.9878709949    -1.7974931588    -1.1313872010
Bq        -1.1074562863    -1.8773401121    -0.8680930269
Bq        -0.9480092312    -1.7708775077    -1.2191519257
Bq        -1.1473180501    -1.9039557632    -0.7803283022
Bq        -0.9081474674    -1.7442618566    -1.3069166504
Bq        -1.1871798139    -1.9305714143    -0.6925635775
Bq        -0.8682857036    -1.7176462055    -1.3946813752
Bq        -1.2270415777    -1.9571870654    -0.6047988527
Bq        -0.8284239398    -1.6910305543    -1.4824460999
Bq        -1.0277327587    -1.8241088099    -1.0436224763
Bq        -1.0786009959    -1.7543314783    -0.9316245011
Bq        -0.9988774683    -1.7011001761    -1.1071539506
Bq        -1.1184627597    -1.7809471294    -0.8438597764
Bq        -0.9590157045    -1.6744845250    -1.1949186753
Bq        -1.1583245235    -1.8075627805    -0.7560950517
Bq        -0.9191539407    -1.6478688739    -1.2826834000
Bq        -1.1981862873    -1.8341784316    -0.6683303270
Bq        -0.8792921770    -1.6212532227    -1.3704481247
Bq        -1.2380480510    -1.8607940827    -0.5805656023
Bq        -0.8394304132    -1.5946375716    -1.4582128494
Bq        -1.0387392321    -1.7277158272    -1.0193892259
Bq        -1.0896074693    -1.6579384956    -0.9073912507
Bq        -1.0098839417    -1.6047071934    -1.0829207001
Bq        -1.1294692331    -1.6845541467    -0.8196265260
Bq        -0.9700221779    -1.5780915422    -1.1706854248
Bq        -1.1693309968    -1.7111697978    -0.7318618013
Bq        -0.9301604141    -1.5514758911    -1.2584501495
Bq        -1.2091927606    -1.7377854489    -0.6440970765
Bq        -0.8902986503    -1.5248602400    -1.3462148742
Bq        -1.2490545244    -1.7644011000    -0.5563323518
Bq        -0.8504368865    -1.4982445889    -1.4339795990
Bq        -1.0497457055    -1.6313228445    -0.9951559754
Bq        -1.1006139426    -1.5615455129    -0.8831580002
Bq        -1.0208904151    -1.5083142106    -1.0586874496
Bq        -1.1404757064    -1.5881611640    -0.7953932755
Bq        -0.9810286513    -1.4816985595    -1.1464521744
Bq        -1.1803374702    -1.6147768151    -0.7076285508
Bq        -0.9411668875    -1.4550829084    -1.2342168991
Bq        -1.2201992340    -1.6413924662    -0.6198638261
Bq        -0.9013051237    -1.4284672573    -1.3219816238
Bq        -1.2600609978    -1.6680081173    -0.5320991014
Bq        -0.8614433599    -1.4018516062    -1.4097463485
Bq        -1.0607521788    -1.5349298617    -0.9709227249
Bq        -1.1116204160    -1.4651525301    -0.8589247498
Bq        -1.0318968884    -1.4119212279    -1.0344541992
Bq        -1.1514821798    -1.4917681812    -0.7711600251
Bq        -0.9920351246    -1.3853055768    -1.1222189239
Bq        -1.1913439436    -1.5183838324    -0.6833953003
Bq        -0.9521733609    -1.3586899257    -1.2099836486
Bq        -1.2312057074    -1.5449994835    -0.5956305756
Bq        -0.9123115971    -1.3320742746    -1.2977483733
Bq        -1.2710674712    -1.5716151346    -0.5078658509
Bq        -0.8724498333    -1.3054586235    -1.3855130980
Bq        -1.0717586522    -1.4385368790    -0.9466894745
Bq        -1.1226268894    -1.3687595474    -0.8346914993
Bq        -1.0429033618    -1.3155282452    -1.0102209487
Bq        -1.1624886532    -1.3953751985    -0.7469267746
Bq        -1.0030415980    -1.2889125941    -1.0979856734
Bq        -1.2023504170    -1.4219908496    -0.6591620499
Bq        -0.9631798342    -1.2622969430    -1.1857503982
Bq        -1.2422121807    -1.4486065008    -0.5713973252
Bq        -0.9233180704    -1.2356812919    -1.2735151229
Bq        -1.2820739445    -1.4752221519    -0.4836326005
Bq        -0.8834563067    -1.2090656408    -1.3612798476
Bq        -1.0827651256    -1.3421438963    -0.9224562240
Bq        -1.1336333628    -1.2723665647    -0.8104582489
Bq        -1.0539098352    -1.2191352625    -0.9859876983
Bq        -1.1734951265    -1.2989822158    -0.7226935241
Bq        -1.0140480714    -1.1925196114    -1.0737524230
Bq        -1.2133568903    -1.3255978669    -0.6349287994
Bq        -0.9741863076    -1.1659039603    -1.1615171477
Bq        -1.2532186541    -1.3522135180    -0.5471640747
Bq        -0.9343245438    -1.1392883092    -1.2492818724
Bq        -1.2930804179    -1.3788291691    -0.4593993500
Bq        -0.8944627800    -1.1126726581    -1.3370465971
Bq        -1.0937715990    -1.2457509136    -0.8982229736
Bq        -1.1446398361    -1.1759735820    -0.7862249984
Bq        -1.0649163086    -1.1227422798    -0.9617544478
Bq        -1.1845015999    -1.2025892331    -0.6984602737
Bq        -1.0250545448    -1.0961266287    -1.0495191725
Bq        -1.2243633637    -1.2292048842    -0.6106955490
Bq        -0.9851927810    -1.0695109776    -1.1372838972
Bq        -1.2642251275    -1.2558205353    -0.5229308243
Bq        -0.9453310172    -1.0428953265    -1.2250486220
Bq        -1.3040868913    -1.2824361864    -0.4351660995

1
2
3
4
5
6
7
8
9
10
11
12
13
14
15
16
17
18
19
20
21
22
23
24
25
26
27
28
29
30
31
32
33
34
35
36
37
38
39
40
41
42
43
44
45
46
47
48
49
50
51
52
53
54
55
56
57
58
59
60
61
62
63
64
65
66
67
68
69
70
71
72
73
74
75
76
77
78
79
80
81
82
83
84
85
86
87
88
89
90
91
92
93
94
95
96
97
98
99
100
101
102
103
104
105
106
107
108
109
110
111
112
113
114
115
116
117
118
119
120
121
122
123
124
125
126
127
128
129
130
131
132
133
134
135
136
137
138
139
140
141
142
143
144
145
146
147
148
149
150
151
152
153
154
155
156
157
158
159
160
161
162
163
164
165
166
167
168
169
170
171
172
173
174
175
176
177
178
179
180
181
182
183
184
185
186
187
188
189
190
191
192
193
194
195
196
197
198
199
200
201
202
203
204
205
206
207
208
209
210
211
212
213
214
215
216
217
218
219
220
221
222
223
224
225
226
227
228
229
230
231
232
233
234
235
236

