%nproc=8
%mem=1000MB
# rb3lyp/6-311+g** NMR geom=connectivity

Title

0 1
C    -4.0500558   -0.5771862    0.8136712
H    -5.0263804   -1.0082727    1.0024760
C    -3.9381552    0.6617804    0.2400876
H    -4.8252424    1.2338890   -0.0111295
C    -2.6768410    1.2433246    0.0057578
C    -1.4974121    0.5051527    0.2848253
C    -1.6508332   -0.7338728    0.9404026
H    -0.7713646   -1.2730967    1.2633753
C    -2.8898548   -1.2624035    1.1994307
H    -2.9683706   -2.2124563    1.7152676
C    -2.5773185    2.5963696   -0.4192930
H    -3.4870728    3.1412239   -0.6474055
C    -1.3741895    3.2147896   -0.4364030
H    -1.2997315    4.2742019   -0.6578144
C    -0.1719488    2.4994090   -0.1734588
C    -0.2043917    1.1018437    0.0192689
C     1.0513491    3.2042560   -0.0676222
H     1.0427344    4.2819499   -0.1896997
C     2.1942091    2.5487446    0.2579577
H     3.1168527    3.0912848    0.4334727
C     2.2216473    1.1336562    0.2934990
C     1.0486931    0.3945528    0.0302412
C     3.4483363    0.4614633    0.5573939
H     4.3095794    1.0606054    0.8334846
C     3.5427346   -0.8855926    0.4749463
H     4.4731467   -1.3939704    0.7038822
C     2.4490052   -1.6474447   -0.0196319
C     1.2150704   -1.0057258   -0.3013573
C     0.2531113   -1.7434440   -1.0216591
H    -0.6541356   -1.2535051   -1.3462847
C     0.4494193   -3.0628597   -1.3413779
H    -0.3083162   -3.5944309   -1.9054060
C     1.6251726   -3.7207967   -0.9552541
H     1.7670048   -4.7687404   -1.1927019
C     2.6109872   -3.0144177   -0.3183050
H     3.5525612   -3.4902813   -0.0646367
Bq         0.9434512293     0.5533466252     0.9243669827
Bq         0.9511351920     0.5042479904     0.7306396465
Bq         0.9396092480     0.5778959425     1.0212306508
Bq         0.9549771733     0.4796986730     0.6337759784
Bq         0.9357672667     0.6024452599     1.1180943189
Bq         0.9588191546     0.4551493557     0.5369123103
Bq         0.9319252853     0.6269945773     1.2149579870
Bq         0.9626611360     0.4306000383     0.4400486422
Bq         0.9280833040     0.6515438947     1.3118216550
Bq         0.9665031173     0.4060507209     0.3431849741
Bq         0.9472932106     0.5287973078     0.8275033146
Bq         0.9444241835     0.6502864571     0.8998369533
Bq         0.9521081462     0.6011878224     0.7061096171
Bq         0.9405822022     0.6748357745     0.9967006213
Bq         0.9559501275     0.5766385050     0.6092459490
Bq         0.9367402209     0.6993850919     1.0935642894
Bq         0.9597921089     0.5520891876     0.5123822809
Bq         0.9328982396     0.7239344092     1.1904279575
Bq         0.9636340902     0.5275398702     0.4155186128
Bq         0.9290562582     0.7484837266     1.2872916256
Bq         0.9674760715     0.5029905529     0.3186549447
Bq         0.9482661649     0.6257371397     0.8029732852
Bq         0.9453971378     0.7472262890     0.8753069238
Bq         0.9530811004     0.6981276543     0.6815795877
Bq         0.9415551564     0.7717756064     0.9721705919
Bq         0.9569230818     0.6735783369     0.5847159196
Bq         0.9377131751     0.7963249238     1.0690342600
Bq         0.9607650631     0.6490290195     0.4878522515
Bq         0.9338711938     0.8208742412     1.1658979281
Bq         0.9646070444     0.6244797022     0.3909885834
Bq         0.9300292124     0.8454235585     1.2627615962
Bq         0.9684490257     0.5999303848     0.2941249153
Bq         0.9492391191     0.7226769717     0.7784432557
Bq         0.9463700920     0.8441661210     0.8507768944
Bq         0.9540540546     0.7950674862     0.6570495582
Bq         0.9425281107     0.8687154384     0.9476405625
Bq         0.9578960360     0.7705181689     0.5601858901
Bq         0.9386861293     0.8932647557     1.0445042306
Bq         0.9617380173     0.7459688515     0.4633222220
Bq         0.9348441480     0.9178140731     1.1413678987
Bq         0.9655799986     0.7214195341     0.3664585540
Bq         0.9310021667     0.9423633905     1.2382315668
Bq         0.9694219800     0.6968702167     0.2695948859
Bq         0.9502120733     0.8196168036     0.7539132263
Bq         0.9473430462     0.9411059529     0.8262468650
Bq         0.9550270089     0.8920073182     0.6325195288
Bq         0.9435010649     0.9656552703     0.9231105331
Bq         0.9588689902     0.8674580008     0.5356558607
Bq         0.9396590836     0.9902045877     1.0199742012
Bq         0.9627109715     0.8429086834     0.4387921926
Bq         0.9358171022     1.0147539051     1.1168378692
Bq         0.9665529529     0.8183593660     0.3419285245
Bq         0.9319751209     1.0393032224     1.2137015373
Bq         0.9703949342     0.7938100487     0.2450648564
Bq         0.9511850275     0.9165566355     0.7293831969
Bq         0.9483160004     1.0380457849     0.8017168355
Bq         0.9559999631     0.9889471501     0.6079894994
Bq         0.9444740191     1.0625951022     0.8985805036
Bq         0.9598419444     0.9643978327     0.5111258313
Bq         0.9406320378     1.0871444196     0.9954441717
Bq         0.9636839258     0.9398485154     0.4142621632
Bq         0.9367900565     1.1116937370     1.0923078398
Bq         0.9675259071     0.9152991980     0.3173984951
Bq         0.9329480751     1.1362430544     1.1891715079
Bq         0.9713678884     0.8907498806     0.2205348270
Bq         0.9521579818     1.0134964675     0.7048531675
Bq         0.9492889547     1.1349856168     0.7771868061
Bq         0.9569729173     1.0858869821     0.5834594699
Bq         0.9454469733     1.1595349342     0.8740504742
Bq         0.9608148986     1.0613376647     0.4865958019
Bq         0.9416049920     1.1840842516     0.9709141423
Bq         0.9646568800     1.0367883473     0.3897321338
Bq         0.9377630107     1.2086335689     1.0677778104
Bq         0.9684988613     1.0122390299     0.2928684657
Bq         0.9339210293     1.2331828863     1.1646414785
Bq         0.9723408426     0.9876897125     0.1960047976
Bq         0.9531309360     1.1104362994     0.6803231380
Bq         0.9502619089     1.2319254487     0.7526567767
Bq         0.9579458715     1.1828268140     0.5589294405
Bq         0.9464199276     1.2564747661     0.8495204448
Bq         0.9617878529     1.1582774966     0.4620657724
Bq         0.9425779462     1.2810240835     0.9463841129
Bq         0.9656298342     1.1337281792     0.3652021043
Bq         0.9387359649     1.3055734009     1.0432477810
Bq         0.9694718155     1.1091788619     0.2683384362
Bq         0.9348939836     1.3301227182     1.1401114491
Bq         0.9733137969     1.0846295445     0.1714747682
Bq         0.9541038902     1.2073761314     0.6557931086
Bq         0.9512348631     1.3288652807     0.7281267473
Bq         0.9589188258     1.2797666459     0.5343994111
Bq         0.9473928818     1.3534145981     0.8249904154
Bq         0.9627608071     1.2552173286     0.4375357430
Bq         0.9435509005     1.3779639154     0.9218540834
Bq         0.9666027884     1.2306680112     0.3406720749
Bq         0.9397089191     1.4025132328     1.0187177515
Bq         0.9704447698     1.2061186938     0.2438084068
Bq         0.9358669378     1.4270625502     1.1155814196
Bq         0.9742867511     1.1815693764     0.1469447387
Bq         0.9550768444     1.3043159633     0.6312630792
Bq         0.9522078173     1.4258051126     0.7035967178
Bq         0.9598917800     1.3767064779     0.5098693817
Bq         0.9483658360     1.4503544300     0.8004603859
Bq         0.9637337613     1.3521571605     0.4130057136
Bq         0.9445238547     1.4749037474     0.8973240540
Bq         0.9675757427     1.3276078431     0.3161420455
Bq         0.9406818733     1.4994530647     0.9941877221
Bq         0.9714177240     1.3030585257     0.2192783774
Bq         0.9368398920     1.5240023821     1.0910513902
Bq         0.9752597053     1.2785092084     0.1224147093
Bq         0.9560497987     1.4012557952     0.6067330498
Bq         0.9531807716     1.5227449446     0.6790666884
Bq         0.9608647342     1.4736463098     0.4853393522
Bq         0.9493387902     1.5472942619     0.7759303565
Bq         0.9647067155     1.4490969924     0.3884756841
Bq         0.9454968089     1.5718435793     0.8727940246
Bq         0.9685486969     1.4245476751     0.2916120161
Bq         0.9416548276     1.5963928967     0.9696576927
Bq         0.9723906782     1.3999983577     0.1947483480
Bq         0.9378128462     1.6209422141     1.0665213608
Bq         0.9762326595     1.3754490403     0.0978846799
Bq         0.9570227529     1.4981956272     0.5822030203
Bq         0.9541537258     1.6196847765     0.6545366590
Bq         0.9618376884     1.5705861417     0.4608093228
Bq         0.9503117445     1.6442340939     0.7514003271
Bq         0.9656796698     1.5460368244     0.3639456547
Bq         0.9464697631     1.6687834113     0.8482639952
Bq         0.9695216511     1.5214875070     0.2670819866
Bq         0.9426277818     1.6933327286     0.9451276633
Bq         0.9733636324     1.4969381896     0.1702183185
Bq         0.9387858005     1.7178820460     1.0419913313
Bq         0.9772056138     1.4723888722     0.0733546504
Bq         0.9579957071     1.5951354591     0.5576729909
Bq         0.9551266800     1.7166246084     0.6300066296
Bq         0.9628106427     1.6675259737     0.4362792934
Bq         0.9512846987     1.7411739258     0.7268702976
Bq         0.9666526240     1.6429766563     0.3394156253
Bq         0.9474427174     1.7657232432     0.8237339657
Bq         0.9704946053     1.6184273389     0.2425519572
Bq         0.9436007360     1.7902725606     0.9205976338
Bq         0.9743365867     1.5938780216     0.1456882891
Bq         0.9397587547     1.8148218779     1.0174613019
Bq         0.9781785680     1.5693287042     0.0488246210
Bq         0.9589686613     1.6920752911     0.5331429615
Bq         0.9560996342     1.8135644404     0.6054766001
Bq         0.9637835969     1.7644658056     0.4117492640
Bq         0.9522576529     1.8381137578     0.7023402682
Bq         0.9676255782     1.7399164882     0.3148855959
Bq         0.9484156716     1.8626630751     0.7992039363
Bq         0.9714675595     1.7153671709     0.2180219278
Bq         0.9445736902     1.8872123925     0.8960676044
Bq         0.9753095409     1.6908178535     0.1211582597
Bq         0.9407317089     1.9117617099     0.9929312725
Bq         0.9791515222     1.6662685361     0.0242945916
Bq         0.9599416156     1.7890151230     0.5086129320
Bq         0.9570725885     1.9105042723     0.5809465707
Bq         0.9647565511     1.8614056376     0.3872192345
Bq         0.9532306071     1.9350535897     0.6778102388
Bq         0.9685985324     1.8368563202     0.2903555664
Bq         0.9493886258     1.9596029071     0.7746739069
Bq         0.9724405138     1.8123070028     0.1934918983
Bq         0.9455466445     1.9841522244     0.8715375750
Bq         0.9762824951     1.7877576854     0.0966282303
Bq         0.9417046631     2.0087015418     0.9684012431
Bq         0.9801244764     1.7632083681    -0.0002354378
Bq         0.9609145698     1.8859549549     0.4840829026
Bq         0.9580455427     2.0074441043     0.5564165413
Bq         0.9657295053     1.9583454695     0.3626892051
Bq         0.9542035614     2.0319934216     0.6532802094
Bq         0.9695714867     1.9337961521     0.2658255370
Bq         0.9503615800     2.0565427390     0.7501438775
Bq         0.9734134680     1.9092468348     0.1689618689
Bq         0.9465195987     2.0810920564     0.8470075455
Bq         0.9772554493     1.8846975174     0.0720982008
Bq         0.9426776174     2.1056413738     0.9438712136
Bq         0.9810974307     1.8601482000    -0.0247654673
Bq         0.9618875240     1.9828947869     0.4595528732
Bq         0.9590184969     2.1043839362     0.5318865119
Bq         0.9667024596     2.0552853014     0.3381591757
Bq         0.9551765156     2.1289332536     0.6287501799
Bq         0.9705444409     2.0307359841     0.2412955076
Bq         0.9513345342     2.1534825709     0.7256138480
Bq         0.9743864222     2.0061866667     0.1444318395
Bq         0.9474925529     2.1780318883     0.8224775161
Bq         0.9782284036     1.9816373493     0.0475681714
Bq         0.9436505716     2.2025812057     0.9193411842
Bq         0.9820703849     1.9570880319    -0.0492954967
Bq         0.9628604782     2.0798346188     0.4350228438
Bq         0.9599914511     2.2013237681     0.5073564824
Bq         0.9676754138     2.1522251334     0.3136291462
Bq         0.9561494698     2.2258730855     0.6042201505
Bq         0.9715173951     2.1276758160     0.2167654782
Bq         0.9523074885     2.2504224029     0.7010838186
Bq         0.9753593764     2.1031264986     0.1199018101
Bq         0.9484655071     2.2749717203     0.7979474867
Bq         0.9792013578     2.0785771813     0.0230381420
Bq         0.9446235258     2.2995210376     0.8948111548
Bq         0.9830433391     2.0540278639    -0.0738255261
Bq         0.9638334325     2.1767744508     0.4104928143
Bq         0.9609644054     2.2982636001     0.4828264530
Bq         0.9686483680     2.2491649653     0.2890991168

1
2
3
4
5
6
7
8
9
10
11
12
13
14
15
16
17
18
19
20
21
22
23
24
25
26
27
28
29
30
31
32
33
34
35
36
37
38
39
40
41
42
43
44
45
46
47
48
49
50
51
52
53
54
55
56
57
58
59
60
61
62
63
64
65
66
67
68
69
70
71
72
73
74
75
76
77
78
79
80
81
82
83
84
85
86
87
88
89
90
91
92
93
94
95
96
97
98
99
100
101
102
103
104
105
106
107
108
109
110
111
112
113
114
115
116
117
118
119
120
121
122
123
124
125
126
127
128
129
130
131
132
133
134
135
136
137
138
139
140
141
142
143
144
145
146
147
148
149
150
151
152
153
154
155
156
157
158
159
160
161
162
163
164
165
166
167
168
169
170
171
172
173
174
175
176
177
178
179
180
181
182
183
184
185
186
187
188
189
190
191
192
193
194
195
196
197
198
199
200
201
202
203
204
205
206
207
208
209
210
211
212
213
214
215
216
217
218
219
220
221
222
223
224
225
226
227
228
229
230
231
232
233
234
235
236

