%nproc=8
%mem=1000MB
# rb3lyp/6-311+g** NMR geom=connectivity

Title

0 1
C    -4.0500558   -0.5771862    0.8136712
H    -5.0263804   -1.0082727    1.0024760
C    -3.9381552    0.6617804    0.2400876
H    -4.8252424    1.2338890   -0.0111295
C    -2.6768410    1.2433246    0.0057578
C    -1.4974121    0.5051527    0.2848253
C    -1.6508332   -0.7338728    0.9404026
H    -0.7713646   -1.2730967    1.2633753
C    -2.8898548   -1.2624035    1.1994307
H    -2.9683706   -2.2124563    1.7152676
C    -2.5773185    2.5963696   -0.4192930
H    -3.4870728    3.1412239   -0.6474055
C    -1.3741895    3.2147896   -0.4364030
H    -1.2997315    4.2742019   -0.6578144
C    -0.1719488    2.4994090   -0.1734588
C    -0.2043917    1.1018437    0.0192689
C     1.0513491    3.2042560   -0.0676222
H     1.0427344    4.2819499   -0.1896997
C     2.1942091    2.5487446    0.2579577
H     3.1168527    3.0912848    0.4334727
C     2.2216473    1.1336562    0.2934990
C     1.0486931    0.3945528    0.0302412
C     3.4483363    0.4614633    0.5573939
H     4.3095794    1.0606054    0.8334846
C     3.5427346   -0.8855926    0.4749463
H     4.4731467   -1.3939704    0.7038822
C     2.4490052   -1.6474447   -0.0196319
C     1.2150704   -1.0057258   -0.3013573
C     0.2531113   -1.7434440   -1.0216591
H    -0.6541356   -1.2535051   -1.3462847
C     0.4494193   -3.0628597   -1.3413779
H    -0.3083162   -3.5944309   -1.9054060
C     1.6251726   -3.7207967   -0.9552541
H     1.7670048   -4.7687404   -1.1927019
C     2.6109872   -3.0144177   -0.3183050
H     3.5525612   -3.4902813   -0.0646367
Bq        -0.3885651847    -1.1170753880     1.7826702581
Bq        -0.3878571935    -1.2040408220     1.6025688643
Bq        -0.3889191802    -1.0735926710     1.8727209549
Bq        -0.3875031979    -1.2475235390     1.5125181674
Bq        -0.3892731758    -1.0301099540     1.9627716518
Bq        -0.3871492024    -1.2910062560     1.4224674705
Bq        -0.3896271714    -0.9866272370     2.0528223487
Bq        -0.3867952068    -1.3344889731     1.3324167736
Bq        -0.3899811670    -0.9431445200     2.1428730456
Bq        -0.3864412112    -1.3779716901     1.2423660768
Bq        -0.3882111891    -1.1605581050     1.6926195612
Bq        -0.3883942524    -1.0270239954     1.7391878770
Bq        -0.3876862612    -1.1139894294     1.5590864833
Bq        -0.3887482480    -0.9835412784     1.8292385739
Bq        -0.3873322657    -1.1574721464     1.4690357864
Bq        -0.3891022435    -0.9400585614     1.9192892708
Bq        -0.3869782701    -1.2009548634     1.3789850895
Bq        -0.3894562391    -0.8965758443     2.0093399677
Bq        -0.3866242745    -1.2444375804     1.2889343926
Bq        -0.3898102347    -0.8530931273     2.0993906646
Bq        -0.3862702789    -1.2879202974     1.1988836957
Bq        -0.3880402568    -1.0705067124     1.6491371801
Bq        -0.3882233201    -0.9369726027     1.6957054960
Bq        -0.3875153290    -1.0239380367     1.5156041022
Bq        -0.3885773157    -0.8934898857     1.7857561929
Bq        -0.3871613334    -1.0674207537     1.4255534053
Bq        -0.3889313113    -0.8500071687     1.8758068898
Bq        -0.3868073378    -1.1109034707     1.3355027085
Bq        -0.3892853068    -0.8065244517     1.9658575866
Bq        -0.3864533422    -1.1543861877     1.2454520116
Bq        -0.3896393024    -0.7630417347     2.0559082835
Bq        -0.3860993467    -1.1978689047     1.1554013147
Bq        -0.3878693245    -0.9804553197     1.6056547991
Bq        -0.3880523878    -0.8469212100     1.6522231150
Bq        -0.3873443967    -0.9338866440     1.4721217212
Bq        -0.3884063834    -0.8034384930     1.7422738118
Bq        -0.3869904011    -0.9773693610     1.3820710243
Bq        -0.3887603790    -0.7599557760     1.8323245087
Bq        -0.3866364055    -1.0208520780     1.2920203274
Bq        -0.3891143746    -0.7164730590     1.9223752056
Bq        -0.3862824100    -1.0643347950     1.2019696306
Bq        -0.3894683701    -0.6729903420     2.0124259025
Bq        -0.3859284144    -1.1078175120     1.1119189337
Bq        -0.3876983923    -0.8904039270     1.5621724181
Bq        -0.3878814556    -0.7568698173     1.6087407339
Bq        -0.3871734644    -0.8438352514     1.4286393402
Bq        -0.3882354511    -0.7133871003     1.6987914308
Bq        -0.3868194688    -0.8873179684     1.3385886433
Bq        -0.3885894467    -0.6699043833     1.7888421277
Bq        -0.3864654733    -0.9308006854     1.2485379464
Bq        -0.3889434423    -0.6264216663     1.8788928246
Bq        -0.3861114777    -0.9742834024     1.1584872495
Bq        -0.3892974379    -0.5829389493     1.9689435215
Bq        -0.3857574821    -1.0177661194     1.0684365526
Bq        -0.3875274600    -0.8003525344     1.5186900370
Bq        -0.3877105233    -0.6668184247     1.5652583529
Bq        -0.3870025321    -0.7537838587     1.3851569591
Bq        -0.3880645189    -0.6233357077     1.6553090498
Bq        -0.3866485366    -0.7972665757     1.2951062623
Bq        -0.3884185144    -0.5798529907     1.7453597467
Bq        -0.3862945410    -0.8407492927     1.2050555654
Bq        -0.3887725100    -0.5363702737     1.8354104435
Bq        -0.3859405454    -0.8842320097     1.1150048685
Bq        -0.3891265056    -0.4928875567     1.9254611404
Bq        -0.3855865498    -0.9277147267     1.0249541716
Bq        -0.3873565277    -0.7103011417     1.4752076560
Bq        -0.3875395910    -0.5767670320     1.5217759719
Bq        -0.3868315999    -0.6637324660     1.3416745781
Bq        -0.3878935866    -0.5332843150     1.6118266687
Bq        -0.3864776043    -0.7072151830     1.2516238812
Bq        -0.3882475822    -0.4898015980     1.7018773656
Bq        -0.3861236087    -0.7506979000     1.1615731843
Bq        -0.3886015777    -0.4463188810     1.7919280625
Bq        -0.3857696131    -0.7941806170     1.0715224875
Bq        -0.3889555733    -0.4028361640     1.8819787594
Bq        -0.3854156176    -0.8376633340     0.9814717906
Bq        -0.3871855954    -0.6202497490     1.4317252750
Bq        -0.3873686587    -0.4867156393     1.4782935908
Bq        -0.3866606676    -0.5736810733     1.2981921971
Bq        -0.3877226543    -0.4432329223     1.5683442877
Bq        -0.3863066720    -0.6171637904     1.2081415002
Bq        -0.3880766499    -0.3997502053     1.6583949846
Bq        -0.3859526764    -0.6606465074     1.1180908033
Bq        -0.3884306455    -0.3562674883     1.7484456815
Bq        -0.3855986809    -0.7041292244     1.0280401064
Bq        -0.3887846410    -0.3127847713     1.8384963784
Bq        -0.3852446853    -0.7476119414     0.9379894095
Bq        -0.3870146632    -0.5301983563     1.3882428940
Bq        -0.3871977265    -0.3966642467     1.4348112098
Bq        -0.3864897353    -0.4836296807     1.2547098160
Bq        -0.3875517220    -0.3531815297     1.5248619067
Bq        -0.3861357397    -0.5271123977     1.1646591192
Bq        -0.3879057176    -0.3096988127     1.6149126036
Bq        -0.3857817442    -0.5705951147     1.0746084223
Bq        -0.3882597132    -0.2662160957     1.7049633005
Bq        -0.3854277486    -0.6140778317     0.9845577254
Bq        -0.3886137088    -0.2227333786     1.7950139973
Bq        -0.3850737530    -0.6575605487     0.8945070285
Bq        -0.3868437309    -0.4401469637     1.3447605129
Bq        -0.3870267942    -0.3066128540     1.3913288288
Bq        -0.3863188030    -0.3935782880     1.2112274350
Bq        -0.3873807898    -0.2631301370     1.4813795257
Bq        -0.3859648075    -0.4370610050     1.1211767381
Bq        -0.3877347853    -0.2196474200     1.5714302225
Bq        -0.3856108119    -0.4805437220     1.0311260412
Bq        -0.3880887809    -0.1761647030     1.6614809194
Bq        -0.3852568163    -0.5240264390     0.9410753444
Bq        -0.3884427765    -0.1326819860     1.7515316163
Bq        -0.3849028207    -0.5675091560     0.8510246475
Bq        -0.3866727986    -0.3500955710     1.3012781319
Bq        -0.3868558619    -0.2165614613     1.3478464477
Bq        -0.3861478708    -0.3035268953     1.1677450540
Bq        -0.3872098575    -0.1730787443     1.4378971446
Bq        -0.3857938752    -0.3470096123     1.0776943571
Bq        -0.3875638531    -0.1295960273     1.5279478415
Bq        -0.3854398796    -0.3904923293     0.9876436602
Bq        -0.3879178486    -0.0861133103     1.6179985384
Bq        -0.3850858840    -0.4339750463     0.8975929633
Bq        -0.3882718442    -0.0426305933     1.7080492353
Bq        -0.3847318885    -0.4774577634     0.8075422664
Bq        -0.3865018663    -0.2600441783     1.2577957509
Bq        -0.3866849296    -0.1265100687     1.3043640667
Bq        -0.3859769385    -0.2134755027     1.1242626729
Bq        -0.3870389252    -0.0830273517     1.3944147636
Bq        -0.3856229429    -0.2569582197     1.0342119761
Bq        -0.3873929208    -0.0395446346     1.4844654605
Bq        -0.3852689473    -0.3004409367     0.9441612792
Bq        -0.3877469164     0.0039380824     1.5745161574
Bq        -0.3849149518    -0.3439236537     0.8541105823
Bq        -0.3881009119     0.0474207994     1.6645668542
Bq        -0.3845609562    -0.3874063707     0.7640598854
Bq        -0.3863309341    -0.1699927857     1.2143133698
Bq        -0.3865139974    -0.0364586760     1.2608816857
Bq        -0.3858060062    -0.1234241100     1.0807802919
Bq        -0.3868679929     0.0070240410     1.3509323826
Bq        -0.3854520106    -0.1669068270     0.9907295950
Bq        -0.3872219885     0.0505067580     1.4409830794
Bq        -0.3850980151    -0.2103895440     0.9006788981
Bq        -0.3875759841     0.0939894750     1.5310337763
Bq        -0.3847440195    -0.2538722610     0.8106282013
Bq        -0.3879299797     0.1374721920     1.6210844732
Bq        -0.3843900239    -0.2973549780     0.7205775044
Bq        -0.3861600018    -0.0799413930     1.1708309888
Bq        -0.3863430651     0.0535927167     1.2173993046
Bq        -0.3856350739    -0.0333727173     1.0372979109
Bq        -0.3866970607     0.0970754337     1.3074500015
Bq        -0.3852810784    -0.0768554343     0.9472472140
Bq        -0.3870510562     0.1405581507     1.3975006984
Bq        -0.3849270828    -0.1203381513     0.8571965171
Bq        -0.3874050518     0.1840408677     1.4875513953
Bq        -0.3845730872    -0.1638208683     0.7671458202
Bq        -0.3877590474     0.2275235847     1.5776020922
Bq        -0.3842190916    -0.2073035853     0.6770951233
Bq        -0.3859890695     0.0101099997     1.1273486078
Bq        -0.3861721328     0.1436441094     1.1739169236
Bq        -0.3854641417     0.0566786753     0.9938155298
Bq        -0.3865261284     0.1871268264     1.2639676205
Bq        -0.3851101461     0.0131959583     0.9037648330
Bq        -0.3868801240     0.2306095434     1.3540183174
Bq        -0.3847561505    -0.0302867587     0.8137141361
Bq        -0.3872341195     0.2740922604     1.4440690143
Bq        -0.3844021549    -0.0737694757     0.7236634392
Bq        -0.3875881151     0.3175749774     1.5341197111
Bq        -0.3840481594    -0.1172521927     0.6336127423
Bq        -0.3858181372     0.1001613924     1.0838662267
Bq        -0.3860012005     0.2336955020     1.1304345426
Bq        -0.3852932094     0.1467300680     0.9503331488
Bq        -0.3863551961     0.2771782190     1.2204852395
Bq        -0.3849392138     0.1032473510     0.8602824519
Bq        -0.3867091917     0.3206609360     1.3105359363
Bq        -0.3845852182     0.0597646340     0.7702317550
Bq        -0.3870631873     0.3641436530     1.4005866332
Bq        -0.3842312227     0.0162819170     0.6801810582
Bq        -0.3874171828     0.4076263700     1.4906373301
Bq        -0.3838772271    -0.0272008000     0.5901303613
Bq        -0.3856472050     0.1902127850     1.0403838457
Bq        -0.3858302683     0.3237468947     1.0869521615
Bq        -0.3851222771     0.2367814607     0.9068507678
Bq        -0.3861842638     0.3672296117     1.1770028584
Bq        -0.3847682815     0.1932987437     0.8168000709
Bq        -0.3865382594     0.4107123287     1.2670535553
Bq        -0.3844142860     0.1498160267     0.7267493740
Bq        -0.3868922550     0.4541950457     1.3571042522
Bq        -0.3840602904     0.1063333097     0.6366986771
Bq        -0.3872462506     0.4976777627     1.4471549491
Bq        -0.3837062948     0.0628505927     0.5466479802
Bq        -0.3854762727     0.2802641777     0.9969014647
Bq        -0.3856593360     0.4137982874     1.0434697805
Bq        -0.3849513448     0.3268328534     0.8633683867
Bq        -0.3860133316     0.4572810044     1.1335204774
Bq        -0.3845973493     0.2833501364     0.7733176899
Bq        -0.3863673271     0.5007637214     1.2235711743
Bq        -0.3842433537     0.2398674194     0.6832669930
Bq        -0.3867213227     0.5442464384     1.3136218712
Bq        -0.3838893581     0.1963847023     0.5932162961
Bq        -0.3870753183     0.5877291554     1.4036725680
Bq        -0.3835353625     0.1529019853     0.5031655992
Bq        -0.3853053404     0.3703155704     0.9534190836
Bq        -0.3854884037     0.5038496800     0.9999873995
Bq        -0.3847804126     0.4168842460     0.8198860057

1
2
3
4
5
6
7
8
9
10
11
12
13
14
15
16
17
18
19
20
21
22
23
24
25
26
27
28
29
30
31
32
33
34
35
36
37
38
39
40
41
42
43
44
45
46
47
48
49
50
51
52
53
54
55
56
57
58
59
60
61
62
63
64
65
66
67
68
69
70
71
72
73
74
75
76
77
78
79
80
81
82
83
84
85
86
87
88
89
90
91
92
93
94
95
96
97
98
99
100
101
102
103
104
105
106
107
108
109
110
111
112
113
114
115
116
117
118
119
120
121
122
123
124
125
126
127
128
129
130
131
132
133
134
135
136
137
138
139
140
141
142
143
144
145
146
147
148
149
150
151
152
153
154
155
156
157
158
159
160
161
162
163
164
165
166
167
168
169
170
171
172
173
174
175
176
177
178
179
180
181
182
183
184
185
186
187
188
189
190
191
192
193
194
195
196
197
198
199
200
201
202
203
204
205
206
207
208
209
210
211
212
213
214
215
216
217
218
219
220
221
222
223
224
225
226
227
228
229
230
231
232
233
234
235
236

