%nproc=8
%mem=1000MB
# rb3lyp/6-311+g** NMR geom=connectivity

Title

0 1
C    -4.0500558   -0.5771862    0.8136712
H    -5.0263804   -1.0082727    1.0024760
C    -3.9381552    0.6617804    0.2400876
H    -4.8252424    1.2338890   -0.0111295
C    -2.6768410    1.2433246    0.0057578
C    -1.4974121    0.5051527    0.2848253
C    -1.6508332   -0.7338728    0.9404026
H    -0.7713646   -1.2730967    1.2633753
C    -2.8898548   -1.2624035    1.1994307
H    -2.9683706   -2.2124563    1.7152676
C    -2.5773185    2.5963696   -0.4192930
H    -3.4870728    3.1412239   -0.6474055
C    -1.3741895    3.2147896   -0.4364030
H    -1.2997315    4.2742019   -0.6578144
C    -0.1719488    2.4994090   -0.1734588
C    -0.2043917    1.1018437    0.0192689
C     1.0513491    3.2042560   -0.0676222
H     1.0427344    4.2819499   -0.1896997
C     2.1942091    2.5487446    0.2579577
H     3.1168527    3.0912848    0.4334727
C     2.2216473    1.1336562    0.2934990
C     1.0486931    0.3945528    0.0302412
C     3.4483363    0.4614633    0.5573939
H     4.3095794    1.0606054    0.8334846
C     3.5427346   -0.8855926    0.4749463
H     4.4731467   -1.3939704    0.7038822
C     2.4490052   -1.6474447   -0.0196319
C     1.2150704   -1.0057258   -0.3013573
C     0.2531113   -1.7434440   -1.0216591
H    -0.6541356   -1.2535051   -1.3462847
C     0.4494193   -3.0628597   -1.3413779
H    -0.3083162   -3.5944309   -1.9054060
C     1.6251726   -3.7207967   -0.9552541
H     1.7670048   -4.7687404   -1.1927019
C     2.6109872   -3.0144177   -0.3183050
H     3.5525612   -3.4902813   -0.0646367
Bq         2.0777082022     1.1244161792     0.4510894773
Bq         1.9763765309     1.1588105748     1.1428617793
Bq         2.0921841553     1.1195026941     0.3522648627
Bq         1.9619005779     1.1637240599     1.2416863939
Bq         2.1066601083     1.1145892090     0.2534402481
Bq         2.0342803431     1.1391566344     0.7475633210
Bq         2.0205165240     1.2439493349     0.8415263308
Bq         2.0494684301     1.2341223647     0.6438771017
Bq         2.0060405710     1.2488628200     0.9403509454
Bq         2.0639443831     1.2292088797     0.5450524871
Bq         1.9915646179     1.2537763051     1.0391755600
Bq         2.0784203362     1.2242953946     0.4462278725
Bq         1.9770886649     1.2586897901     1.1380001746
Bq         2.0928962892     1.2193819095     0.3474032579
Bq         1.9626127118     1.2636032752     1.2368247892
Bq         2.1073722423     1.2144684244     0.2485786433
Bq         2.0349924770     1.2390358498     0.7427017162
Bq         2.0212286579     1.3438285503     0.8366647261
Bq         2.0501805640     1.3340015801     0.6390154969
Bq         2.0067527049     1.3487420354     0.9354893406
Bq         2.0646565171     1.3290880950     0.5401908823
Bq         1.9922767519     1.3536555204     1.0343139552
Bq         2.0791324701     1.3241746099     0.4413662677
Bq         1.9778007988     1.3585690055     1.1331385698
Bq         2.0936084232     1.3192611249     0.3425416531
Bq         1.9633248458     1.3634824906     1.2319631844
Bq         2.1080843762     1.3143476398     0.2437170386
Bq         2.0357046110     1.3389150652     0.7378401115
Bq         2.0219407919     1.4437077657     0.8318031213
Bq         2.0508926980     1.4338807955     0.6341538921
Bq         2.0074648388     1.4486212507     0.9306277359
Bq         2.0653686510     1.4289673104     0.5353292775
Bq         1.9929888858     1.4535347358     1.0294523505
Bq         2.0798446041     1.4240538253     0.4365046630
Bq         1.9785129328     1.4584482209     1.1282769650
Bq         2.0943205571     1.4191403402     0.3376800484
Bq         1.9640369797     1.4633617060     1.2271015796
Bq         2.1087965102     1.4142268552     0.2388554338
Bq         2.0364167449     1.4387942806     0.7329785067
Bq         2.0226529258     1.5435869810     0.8269415165
Bq         2.0516048319     1.5337600109     0.6292922874
Bq         2.0081769728     1.5485004661     0.9257661311
Bq         2.0660807850     1.5288465258     0.5304676728
Bq         1.9937010197     1.5534139512     1.0245907457
Bq         2.0805567380     1.5239330407     0.4316430582
Bq         1.9792250667     1.5583274363     1.1234153603
Bq         2.0950326911     1.5190195556     0.3328184436
Bq         1.9647491137     1.5632409214     1.2222399749
Bq         2.1095086441     1.5141060705     0.2339938290
Bq         2.0371288789     1.5386734959     0.7281169019
Bq         2.0233650598     1.6434661964     0.8220799118
Bq         2.0523169659     1.6336392262     0.6244306826
Bq         2.0088891067     1.6483796815     0.9209045263
Bq         2.0667929189     1.6287257412     0.5256060680
Bq         1.9944131537     1.6532931666     1.0197291409
Bq         2.0812688719     1.6238122561     0.4267814534
Bq         1.9799372006     1.6582066517     1.1185537555
Bq         2.0957448250     1.6188987710     0.3279568388
Bq         1.9654612476     1.6631201367     1.2173783701
Bq         2.1102207780     1.6139852859     0.2291322243
Bq         2.0378410128     1.6385527113     0.7232552972
Bq         2.0240771937     1.7433454118     0.8172183070
Bq         2.0530290998     1.7335184416     0.6195690778
Bq         2.0096012407     1.7482588969     0.9160429216
Bq         2.0675050528     1.7286049565     0.5207444632
Bq         1.9951252876     1.7531723819     1.0148675362
Bq         2.0819810059     1.7236914715     0.4219198487
Bq         1.9806493346     1.7580858670     1.1136921507
Bq         2.0964569589     1.7187779864     0.3230952341
Bq         1.9661733815     1.7629993521     1.2125167653
Bq         2.1109329120     1.7138645013     0.2242706195
Bq         2.0385531468     1.7384319267     0.7183936924
Bq         2.0247893277     1.8432246272     0.8123567022
Bq         2.0537412337     1.8333976570     0.6147074731
Bq         2.0103133746     1.8481381122     0.9111813168
Bq         2.0682171868     1.8284841719     0.5158828585
Bq         1.9958374216     1.8530515973     1.0100059314
Bq         2.0826931398     1.8235706868     0.4170582439
Bq         1.9813614685     1.8579650824     1.1088305460
Bq         2.0971690929     1.8186572017     0.3182336293
Bq         1.9668855155     1.8628785675     1.2076551606
Bq         2.1116450459     1.8137437167     0.2194090147
Bq         2.0392652807     1.8383111421     0.7135320876
Bq         2.0255014616     1.9431038425     0.8074950975
Bq         2.0544533677     1.9332768724     0.6098458683
Bq         2.0110255086     1.9480173276     0.9063197120
Bq         2.0689293207     1.9283633873     0.5110212537
Bq         1.9965495555     1.9529308127     1.0051443266
Bq         2.0834052738     1.9234499022     0.4121966391
Bq         1.9820736025     1.9578442978     1.1039689412
Bq         2.0978812268     1.9185364171     0.3133720245
Bq         1.9675976494     1.9627577829     1.2027935558
Bq         2.1123571799     1.9136229320     0.2145474100
Bq         2.0399774146     1.9381903575     0.7086704829
Bq         2.0262135955     2.0429830579     0.8026334927
Bq         2.0551655016     2.0331560878     0.6049842635
Bq         2.0117376425     2.0478965430     0.9014581073
Bq         2.0696414547     2.0282426027     0.5061596489
Bq         1.9972616894     2.0528100281     1.0002827219
Bq         2.0841174077     2.0233291176     0.4073350344
Bq         1.9827857364     2.0577235132     1.0991073364
Bq         2.0985933608     2.0184156325     0.3085104198
Bq         1.9683097834     2.0626369982     1.1979319510
Bq         2.1130693138     2.0135021474     0.2096858052
Bq         2.0406895486     2.0380695728     0.7038088781
Bq         2.0269257295     2.1428622733     0.7977718879
Bq         2.0558776356     2.1330353031     0.6001226588
Bq         2.0124497764     2.1477757584     0.8965965025
Bq         2.0703535886     2.1281218180     0.5012980442
Bq         1.9979738234     2.1526892435     0.9954211171
Bq         2.0848295417     2.1232083330     0.4024734296
Bq         1.9834978703     2.1576027285     1.0942457317
Bq         2.0993054947     2.1182948479     0.3036488150
Bq         1.9690219173     2.1625162136     1.1930703463
Bq         2.1137814477     2.1133813628     0.2048242004
Bq         2.0414016825     2.1379487882     0.6989472733
Bq         2.0276378634     2.2427414887     0.7929102832
Bq         2.0565897695     2.2329145185     0.5952610540
Bq         2.0131619104     2.2476549738     0.8917348977
Bq         2.0710657226     2.2280010334     0.4964364394
Bq         1.9986859573     2.2525684588     0.9905595123
Bq         2.0855416756     2.2230875483     0.3976118248
Bq         1.9842100043     2.2574819439     1.0893841269
Bq         2.1000176286     2.2181740633     0.2987872102
Bq         1.9697340512     2.2623954290     1.1882087415
Bq         2.1144935817     2.2132605782     0.1999625957
Bq         2.0421138165     2.2378280036     0.6940856686
Bq         2.0283499974     2.3426207040     0.7880486784
Bq         2.0573019035     2.3327937339     0.5903994492
Bq         2.0138740443     2.3475341891     0.8868732930
Bq         2.0717778565     2.3278802488     0.4915748346
Bq         1.9993980913     2.3524476742     0.9856979076
Bq         2.0862538095     2.3229667637     0.3927502201
Bq         1.9849221382     2.3573611593     1.0845225221
Bq         2.1007297626     2.3180532786     0.2939256055
Bq         1.9704461852     2.3622746444     1.1833471367
Bq         2.1152057156     2.3131397936     0.1951009909
Bq         2.0428259504     2.3377072190     0.6892240638
Bq         2.0290621313     2.4424999194     0.7831870736
Bq         2.0580140374     2.4326729493     0.5855378445
Bq         2.0145861783     2.4474134045     0.8820116882
Bq         2.0724899904     2.4277594642     0.4867132299
Bq         2.0001102252     2.4523268896     0.9808363028
Bq         2.0869659435     2.4228459791     0.3878886153
Bq         1.9856342722     2.4572403747     1.0796609174
Bq         2.1014418965     2.4179324940     0.2890640007
Bq         1.9711583191     2.4621538598     1.1784855320
Bq         2.1159178496     2.4130190089     0.1902393861
Bq         2.0435380843     2.4375864343     0.6843624590
Bq         2.0297742652     2.5423791348     0.7783254689
Bq         2.0587261713     2.5325521646     0.5806762397
Bq         2.0152983122     2.5472926199     0.8771500834
Bq         2.0732021244     2.5276386796     0.4818516251
Bq         2.0008223592     2.5522061050     0.9759746980
Bq         2.0876780774     2.5227251945     0.3830270105
Bq         1.9863464061     2.5571195900     1.0747993126
Bq         2.1021540305     2.5178117094     0.2842023959
Bq         1.9718704531     2.5620330751     1.1736239272
Bq         2.1166299835     2.5128982243     0.1853777814
Bq         2.0442502183     2.5374656497     0.6795008543
Bq         2.0304863992     2.6422583502     0.7734638641
Bq         2.0594383053     2.6324313800     0.5758146349
Bq         2.0160104461     2.6471718353     0.8722884787
Bq         2.0739142583     2.6275178949     0.4769900203
Bq         2.0015344931     2.6520853203     0.9711130933
Bq         2.0883902114     2.6226044098     0.3781654058
Bq         1.9870585401     2.6569988054     1.0699377079
Bq         2.1028661644     2.6176909248     0.2793407912
Bq         1.9725825870     2.6619122905     1.1687623224
Bq         2.1173421175     2.6127774397     0.1805161766
Bq         2.0449623522     2.6373448651     0.6746392495
Bq         2.0311985331     2.7421375656     0.7686022593
Bq         2.0601504392     2.7323105954     0.5709530302
Bq         2.0167225801     2.7470510506     0.8674268739
Bq         2.0746263923     2.7273971103     0.4721284156
Bq         2.0022466270     2.7519645357     0.9662514885
Bq         2.0891023453     2.7224836252     0.3733038010
Bq         1.9877706740     2.7568780208     1.0650761031
Bq         2.1035782984     2.7175701401     0.2744791864
Bq         1.9732947210     2.7617915059     1.1639007177
Bq         2.1180542514     2.7126566551     0.1756545718
Bq         2.0456744862     2.7372240805     0.6697776447
Bq         2.0319106671     2.8420167809     0.7637406546
Bq         2.0608625732     2.8321898108     0.5660914254
Bq         2.0174347140     2.8469302660     0.8625652691
Bq         2.0753385262     2.8272763257     0.4672668108
Bq         2.0029587610     2.8518437511     0.9613898837
Bq         2.0898144792     2.8223628406     0.3684421962
Bq         1.9884828079     2.8567572362     1.0602144983
Bq         2.1042904323     2.8174493555     0.2696175816
Bq         1.9740068549     2.8616707213     1.1590391129
Bq         2.1187663853     2.8125358704     0.1707929671
Bq         2.0463866201     2.8371032959     0.6649160400
Bq         2.0326228010     2.9418959963     0.7588790498
Bq         2.0615747071     2.9320690261     0.5612298206
Bq         2.0181468480     2.9468094814     0.8577036644
Bq         2.0760506601     2.9271555411     0.4624052060
Bq         2.0036708949     2.9517229665     0.9565282790
Bq         2.0905266132     2.9222420560     0.3635805915
Bq         1.9891949419     2.9566364516     1.0553528936

1
2
3
4
5
6
7
8
9
10
11
12
13
14
15
16
17
18
19
20
21
22
23
24
25
26
27
28
29
30
31
32
33
34
35
36
37
38
39
40
41
42
43
44
45
46
47
48
49
50
51
52
53
54
55
56
57
58
59
60
61
62
63
64
65
66
67
68
69
70
71
72
73
74
75
76
77
78
79
80
81
82
83
84
85
86
87
88
89
90
91
92
93
94
95
96
97
98
99
100
101
102
103
104
105
106
107
108
109
110
111
112
113
114
115
116
117
118
119
120
121
122
123
124
125
126
127
128
129
130
131
132
133
134
135
136
137
138
139
140
141
142
143
144
145
146
147
148
149
150
151
152
153
154
155
156
157
158
159
160
161
162
163
164
165
166
167
168
169
170
171
172
173
174
175
176
177
178
179
180
181
182
183
184
185
186
187
188
189
190
191
192
193
194
195
196
197
198
199
200
201
202
203
204
205
206
207
208
209
210
211
212
213
214
215
216
217
218
219
220
221
222
223
224
225
226
227
228
229
230
231
232
233
234
235
236

