%nproc=8
%mem=1000MB
# rb3lyp/6-311+g** NMR geom=connectivity

Title

0 1
C    -4.0500558   -0.5771862    0.8136712
H    -5.0263804   -1.0082727    1.0024760
C    -3.9381552    0.6617804    0.2400876
H    -4.8252424    1.2338890   -0.0111295
C    -2.6768410    1.2433246    0.0057578
C    -1.4974121    0.5051527    0.2848253
C    -1.6508332   -0.7338728    0.9404026
H    -0.7713646   -1.2730967    1.2633753
C    -2.8898548   -1.2624035    1.1994307
H    -2.9683706   -2.2124563    1.7152676
C    -2.5773185    2.5963696   -0.4192930
H    -3.4870728    3.1412239   -0.6474055
C    -1.3741895    3.2147896   -0.4364030
H    -1.2997315    4.2742019   -0.6578144
C    -0.1719488    2.4994090   -0.1734588
C    -0.2043917    1.1018437    0.0192689
C     1.0513491    3.2042560   -0.0676222
H     1.0427344    4.2819499   -0.1896997
C     2.1942091    2.5487446    0.2579577
H     3.1168527    3.0912848    0.4334727
C     2.2216473    1.1336562    0.2934990
C     1.0486931    0.3945528    0.0302412
C     3.4483363    0.4614633    0.5573939
H     4.3095794    1.0606054    0.8334846
C     3.5427346   -0.8855926    0.4749463
H     4.4731467   -1.3939704    0.7038822
C     2.4490052   -1.6474447   -0.0196319
C     1.2150704   -1.0057258   -0.3013573
C     0.2531113   -1.7434440   -1.0216591
H    -0.6541356   -1.2535051   -1.3462847
C     0.4494193   -3.0628597   -1.3413779
H    -0.3083162   -3.5944309   -1.9054060
C     1.6251726   -3.7207967   -0.9552541
H     1.7670048   -4.7687404   -1.1927019
C     2.6109872   -3.0144177   -0.3183050
H     3.5525612   -3.4902813   -0.0646367
Bq        -0.0078301800    -0.6683402352    -0.4094799471
Bq        -0.2389399589    -0.7963891664     0.4508640198
Bq         0.0178486844    -0.6541125761    -0.5050737212
Bq        -0.1105456373    -0.7252508713    -0.0271048507
Bq        -0.1399155521    -0.6404958363     0.0822294630
Bq        -0.0885578235    -0.6120405182    -0.1089580852
Bq        -0.1655944164    -0.6547234953     0.1778232371
Bq        -0.0628789591    -0.5978128592    -0.2045518593
Bq        -0.1912732808    -0.6689511543     0.2734170111
Bq        -0.0372000948    -0.5835852002    -0.3001456334
Bq        -0.2169521451    -0.6831788134     0.3690107852
Bq        -0.0115212305    -0.5693575411    -0.3957394075
Bq        -0.2426310094    -0.6974064724     0.4646045593
Bq         0.0141576338    -0.5551298821    -0.4913331816
Bq        -0.1142366878    -0.6262681772    -0.0133643111
Bq        -0.1436066026    -0.5415131422     0.0959700025
Bq        -0.0922488740    -0.5130578242    -0.0952175457
Bq        -0.1692854670    -0.5557408013     0.1915637766
Bq        -0.0665700097    -0.4988301652    -0.1908113198
Bq        -0.1949643313    -0.5699684603     0.2871575507
Bq        -0.0408911454    -0.4846025061    -0.2864050939
Bq        -0.2206431956    -0.5841961193     0.3827513248
Bq        -0.0152122810    -0.4703748471    -0.3819988680
Bq        -0.2463220599    -0.5984237784     0.4783450989
Bq         0.0104665833    -0.4561471881    -0.4775926421
Bq        -0.1179277383    -0.5272854832     0.0003762284
Bq        -0.1472976532    -0.4425304482     0.1097105421
Bq        -0.0959399245    -0.4140751301    -0.0814770061
Bq        -0.1729765175    -0.4567581072     0.2053043162
Bq        -0.0702610602    -0.3998474711    -0.1770707802
Bq        -0.1986553818    -0.4709857663     0.3008980903
Bq        -0.0445821959    -0.3856198121    -0.2726645543
Bq        -0.2243342462    -0.4852134253     0.3964918644
Bq        -0.0189033316    -0.3713921531    -0.3682583284
Bq        -0.2500131105    -0.4994410843     0.4920856385
Bq         0.0067755328    -0.3571644940    -0.4638521025
Bq        -0.1216187889    -0.4283027892     0.0141167680
Bq        -0.1509887037    -0.3435477542     0.1234510816
Bq        -0.0996309751    -0.3150924361    -0.0677364666
Bq        -0.1766675680    -0.3577754132     0.2190448557
Bq        -0.0739521108    -0.3008647771    -0.1633302407
Bq        -0.2023464324    -0.3720030722     0.3146386298
Bq        -0.0482732464    -0.2866371181    -0.2589240147
Bq        -0.2280252967    -0.3862307313     0.4102324039
Bq        -0.0225943821    -0.2724094590    -0.3545177888
Bq        -0.2537041610    -0.4004583903     0.5058261780
Bq         0.0030844822    -0.2581818000    -0.4501115629
Bq        -0.1253098394    -0.3293200951     0.0278573075
Bq        -0.1546797543    -0.2445650601     0.1371916212
Bq        -0.1033220256    -0.2161097421    -0.0539959270
Bq        -0.1803586186    -0.2587927192     0.2327853953
Bq        -0.0776431613    -0.2018820830    -0.1495897011
Bq        -0.2060374829    -0.2730203782     0.3283791694
Bq        -0.0519642970    -0.1876544240    -0.2451834752
Bq        -0.2317163472    -0.2872480372     0.4239729435
Bq        -0.0262854326    -0.1734267650    -0.3407772493
Bq        -0.2573952115    -0.3014756962     0.5195667176
Bq        -0.0006065683    -0.1591991060    -0.4363710234
Bq        -0.1290008899    -0.2303374011     0.0415978471
Bq        -0.1583708048    -0.1455823661     0.1509321608
Bq        -0.1070130761    -0.1171270480    -0.0402553874
Bq        -0.1840496691    -0.1598100251     0.2465259348
Bq        -0.0813342118    -0.1028993890    -0.1358491615
Bq        -0.2097285334    -0.1740376842     0.3421197089
Bq        -0.0556553475    -0.0886717300    -0.2314429356
Bq        -0.2354073978    -0.1882653432     0.4377134830
Bq        -0.0299764832    -0.0744440710    -0.3270367097
Bq        -0.2610862621    -0.2024930022     0.5333072571
Bq        -0.0042976189    -0.0602164119    -0.4226304838
Bq        -0.1326919405    -0.1313547071     0.0553383867
Bq        -0.1620618553    -0.0465996721     0.1646727003
Bq        -0.1107041267    -0.0181443540    -0.0265148479
Bq        -0.1877407196    -0.0608273311     0.2602664744
Bq        -0.0850252624    -0.0039166950    -0.1221086220
Bq        -0.2134195840    -0.0750549901     0.3558602485
Bq        -0.0593463980     0.0103109641    -0.2177023961
Bq        -0.2390984483    -0.0892826491     0.4514540226
Bq        -0.0336675337     0.0245386231    -0.3132961702
Bq        -0.2647773126    -0.1035103082     0.5470477967
Bq        -0.0079886694     0.0387662821    -0.4088899443
Bq        -0.1363829910    -0.0323720130     0.0690789262
Bq        -0.1657529059     0.0523830220     0.1784132399
Bq        -0.1143951772     0.0808383400    -0.0127743083
Bq        -0.1914317702     0.0381553629     0.2740070140
Bq        -0.0887163129     0.0950659991    -0.1083680824
Bq        -0.2171106345     0.0239277039     0.3696007881
Bq        -0.0630374486     0.1092936581    -0.2039618565
Bq        -0.2427894988     0.0097000449     0.4651945622
Bq        -0.0373585842     0.1235213171    -0.2995556306
Bq        -0.2684683632    -0.0045276141     0.5607883362
Bq        -0.0116797199     0.1377489761    -0.3951494047
Bq        -0.1400740415     0.0666106810     0.0828194658
Bq        -0.1694439564     0.1513657160     0.1921537794
Bq        -0.1180862278     0.1798210341     0.0009662312
Bq        -0.1951228207     0.1371380570     0.2877475535
Bq        -0.0924073634     0.1940486931    -0.0946275429
Bq        -0.2208016850     0.1229103980     0.3833413276
Bq        -0.0667284991     0.2082763521    -0.1902213170
Bq        -0.2464805494     0.1086827389     0.4789351017
Bq        -0.0410496348     0.2225040112    -0.2858150910
Bq        -0.2721594137     0.0944550799     0.5745288758
Bq        -0.0153707705     0.2367316702    -0.3814088651
Bq        -0.1437650921     0.1655933750     0.0965600053
Bq        -0.1731350069     0.2503484100     0.2058943190
Bq        -0.1217772783     0.2788037281     0.0147067708
Bq        -0.1988138713     0.2361207510     0.3014880931
Bq        -0.0960984140     0.2930313871    -0.0808870033
Bq        -0.2244927356     0.2218930920     0.3970818672
Bq        -0.0704195496     0.3072590462    -0.1764807774
Bq        -0.2501715999     0.2076654330     0.4926756413
Bq        -0.0447406853     0.3214867052    -0.2720745515
Bq        -0.2758504642     0.1934377739     0.5882694154
Bq        -0.0190618210     0.3357143642    -0.3676683256
Bq        -0.1474561426     0.2645760691     0.1103005449
Bq        -0.1768260575     0.3493311041     0.2196348585
Bq        -0.1254683288     0.3777864221     0.0284473104
Bq        -0.2025049218     0.3351034451     0.3152286326
Bq        -0.0997894645     0.3920140812    -0.0671464637
Bq        -0.2281837861     0.3208757860     0.4108224067
Bq        -0.0741106002     0.4062417402    -0.1627402378
Bq        -0.2538626504     0.3066481270     0.5064161808
Bq        -0.0484317359     0.4204693992    -0.2583340119
Bq        -0.2795415148     0.2924204680     0.6020099549
Bq        -0.0227528715     0.4346970583    -0.3539277860
Bq        -0.1511471931     0.3635587631     0.1240410845
Bq        -0.1805171080     0.4483137981     0.2333753981
Bq        -0.1291593794     0.4767691162     0.0421878499
Bq        -0.2061959723     0.4340861391     0.3289691722
Bq        -0.1034805150     0.4909967752    -0.0534059242
Bq        -0.2318748366     0.4198584801     0.4245629463
Bq        -0.0778016507     0.5052244342    -0.1489996983
Bq        -0.2575537010     0.4056308210     0.5201567204
Bq        -0.0521227864     0.5194520933    -0.2445934724
Bq        -0.2832325653     0.3914031620     0.6157504945
Bq        -0.0264439221     0.5336797523    -0.3401872465
Bq        -0.1548382437     0.4625414571     0.1377816240
Bq        -0.1842081585     0.5472964922     0.2471159377
Bq        -0.1328504299     0.5757518102     0.0559283895
Bq        -0.2098870229     0.5330688331     0.3427097118
Bq        -0.1071715656     0.5899794692    -0.0396653846
Bq        -0.2355658872     0.5188411741     0.4383034859
Bq        -0.0814927012     0.6042071283    -0.1352591587
Bq        -0.2612447515     0.5046135151     0.5338972599
Bq        -0.0558138369     0.6184347873    -0.2308529328
Bq        -0.2869236158     0.4903858560     0.6294910340
Bq        -0.0301349726     0.6326624463    -0.3264467069
Bq        -0.1585292942     0.5615241512     0.1515221636
Bq        -0.1878992091     0.6462791862     0.2608564772
Bq        -0.1365414804     0.6747345042     0.0696689290
Bq        -0.2135780734     0.6320515272     0.3564502513
Bq        -0.1108626161     0.6889621633    -0.0259248451
Bq        -0.2392569377     0.6178238681     0.4520440254
Bq        -0.0851837518     0.7031898223    -0.1215186192
Bq        -0.2649358020     0.6035962091     0.5476377995
Bq        -0.0595048875     0.7174174813    -0.2171123933
Bq        -0.2906146664     0.5893685501     0.6432315736
Bq        -0.0338260231     0.7316451404    -0.3127061673
Bq        -0.1622203447     0.6605068452     0.1652627031
Bq        -0.1915902596     0.7452618802     0.2745970168
Bq        -0.1402325310     0.7737171983     0.0834094686
Bq        -0.2172691239     0.7310342212     0.3701907909
Bq        -0.1145536666     0.7879448573    -0.0121843055
Bq        -0.2429479883     0.7168065622     0.4657845650
Bq        -0.0888748023     0.8021725163    -0.1077780796
Bq        -0.2686268526     0.7025789031     0.5613783391
Bq        -0.0631959380     0.8164001754    -0.2033718537
Bq        -0.2943057169     0.6883512441     0.6569721132
Bq        -0.0375170737     0.8306278344    -0.2989656278
Bq        -0.1659113953     0.7594895393     0.1790032427
Bq        -0.1952813101     0.8442445743     0.2883375563
Bq        -0.1439235815     0.8726998923     0.0971500082
Bq        -0.2209601745     0.8300169152     0.3839313304
Bq        -0.1182447172     0.8869275513     0.0015562341
Bq        -0.2466390388     0.8157892562     0.4795251045
Bq        -0.0925658529     0.9011552104    -0.0940375400
Bq        -0.2723179031     0.8015615972     0.5751188786
Bq        -0.0668869885     0.9153828694    -0.1896313141
Bq        -0.2979967674     0.7873339381     0.6707126527
Bq        -0.0412081242     0.9296105284    -0.2852250882
Bq        -0.1696024458     0.8584722333     0.1927437822
Bq        -0.1989723607     0.9432272683     0.3020780959
Bq        -0.1476146320     0.9716825864     0.1108905477
Bq        -0.2246512250     0.9289996093     0.3976718700
Bq        -0.1219357677     0.9859102454     0.0152967736
Bq        -0.2503300893     0.9147719502     0.4932656441
Bq        -0.0962569034     1.0001379044    -0.0802970005
Bq        -0.2760089536     0.9005442912     0.5888594182
Bq        -0.0705780391     1.0143655634    -0.1758907746
Bq        -0.3016878180     0.8863166322     0.6844531923
Bq        -0.0448991747     1.0285932225    -0.2714845487
Bq        -0.1732934964     0.9574549273     0.2064843218
Bq        -0.2026634112     1.0422099623     0.3158186355
Bq        -0.1513056826     1.0706652804     0.1246310873
Bq        -0.2283422755     1.0279823033     0.4114124096
Bq        -0.1256268182     1.0848929394     0.0290373132
Bq        -0.2540211399     1.0137546443     0.5070061836
Bq        -0.0999479539     1.0991205984    -0.0665564609
Bq        -0.2797000042     0.9995269852     0.6025999577
Bq        -0.0742690896     1.1133482575    -0.1621502350
Bq        -0.3053788685     0.9852993262     0.6981937318

1
2
3
4
5
6
7
8
9
10
11
12
13
14
15
16
17
18
19
20
21
22
23
24
25
26
27
28
29
30
31
32
33
34
35
36
37
38
39
40
41
42
43
44
45
46
47
48
49
50
51
52
53
54
55
56
57
58
59
60
61
62
63
64
65
66
67
68
69
70
71
72
73
74
75
76
77
78
79
80
81
82
83
84
85
86
87
88
89
90
91
92
93
94
95
96
97
98
99
100
101
102
103
104
105
106
107
108
109
110
111
112
113
114
115
116
117
118
119
120
121
122
123
124
125
126
127
128
129
130
131
132
133
134
135
136
137
138
139
140
141
142
143
144
145
146
147
148
149
150
151
152
153
154
155
156
157
158
159
160
161
162
163
164
165
166
167
168
169
170
171
172
173
174
175
176
177
178
179
180
181
182
183
184
185
186
187
188
189
190
191
192
193
194
195
196
197
198
199
200
201
202
203
204
205
206
207
208
209
210
211
212
213
214
215
216
217
218
219
220
221
222
223
224
225
226
227
228
229
230
231
232
233
234
235
236

