%nproc=8
%mem=1000MB
# rb3lyp/6-311+g** NMR geom=connectivity

Title

0 1
C    -4.0500558   -0.5771862    0.8136712
H    -5.0263804   -1.0082727    1.0024760
C    -3.9381552    0.6617804    0.2400876
H    -4.8252424    1.2338890   -0.0111295
C    -2.6768410    1.2433246    0.0057578
C    -1.4974121    0.5051527    0.2848253
C    -1.6508332   -0.7338728    0.9404026
H    -0.7713646   -1.2730967    1.2633753
C    -2.8898548   -1.2624035    1.1994307
H    -2.9683706   -2.2124563    1.7152676
C    -2.5773185    2.5963696   -0.4192930
H    -3.4870728    3.1412239   -0.6474055
C    -1.3741895    3.2147896   -0.4364030
H    -1.2997315    4.2742019   -0.6578144
C    -0.1719488    2.4994090   -0.1734588
C    -0.2043917    1.1018437    0.0192689
C     1.0513491    3.2042560   -0.0676222
H     1.0427344    4.2819499   -0.1896997
C     2.1942091    2.5487446    0.2579577
H     3.1168527    3.0912848    0.4334727
C     2.2216473    1.1336562    0.2934990
C     1.0486931    0.3945528    0.0302412
C     3.4483363    0.4614633    0.5573939
H     4.3095794    1.0606054    0.8334846
C     3.5427346   -0.8855926    0.4749463
H     4.4731467   -1.3939704    0.7038822
C     2.4490052   -1.6474447   -0.0196319
C     1.2150704   -1.0057258   -0.3013573
C     0.2531113   -1.7434440   -1.0216591
H    -0.6541356   -1.2535051   -1.3462847
C     0.4494193   -3.0628597   -1.3413779
H    -0.3083162   -3.5944309   -1.9054060
C     1.6251726   -3.7207967   -0.9552541
H     1.7670048   -4.7687404   -1.1927019
C     2.6109872   -3.0144177   -0.3183050
H     3.5525612   -3.4902813   -0.0646367
Bq        -0.1626455352     2.0135021474    -0.1236637498
Bq        -0.2350253005     2.0380695728     0.3704593231
Bq        -0.2487891196     2.1428622733     0.4644223329
Bq        -0.2198372135     2.1330353031     0.2667731037
Bq        -0.2632650726     2.1477757584     0.5632469475
Bq        -0.2053612604     2.1281218180     0.1679484892
Bq        -0.2777410257     2.1526892435     0.6620715621
Bq        -0.1908853074     2.1232083330     0.0691238746
Bq        -0.2922169787     2.1576027285     0.7608961767
Bq        -0.1764093543     2.1182948479    -0.0297007400
Bq        -0.3066929317     2.1625162136     0.8597207912
Bq        -0.1619334013     2.1133813628    -0.1285253546
Bq        -0.2343131665     2.1379487882     0.3655977183
Bq        -0.2480769856     2.2427414887     0.4595607281
Bq        -0.2191250795     2.2329145185     0.2619114990
Bq        -0.2625529387     2.2476549738     0.5583853427
Bq        -0.2046491265     2.2280010334     0.1630868844
Bq        -0.2770288917     2.2525684588     0.6572099573
Bq        -0.1901731734     2.2230875483     0.0642622698
Bq        -0.2915048448     2.2574819439     0.7560345719
Bq        -0.1756972204     2.2181740633    -0.0345623448
Bq        -0.3059807978     2.2623954290     0.8548591865
Bq        -0.1612212674     2.2132605782    -0.1333869594
Bq        -0.2336010326     2.2378280036     0.3607361136
Bq        -0.2473648517     2.3426207040     0.4546991234
Bq        -0.2184129456     2.3327937339     0.2570498942
Bq        -0.2618408047     2.3475341891     0.5535237380
Bq        -0.2039369925     2.3278802488     0.1582252796
Bq        -0.2763167578     2.3524476742     0.6523483525
Bq        -0.1894610395     2.3229667637     0.0594006650
Bq        -0.2907927108     2.3573611593     0.7511729671
Bq        -0.1749850865     2.3180532786    -0.0394239495
Bq        -0.3052686639     2.3622746444     0.8499975817
Bq        -0.1605091334     2.3131397936    -0.1382485641
Bq        -0.2328888986     2.3377072190     0.3558745088
Bq        -0.2466527177     2.4424999194     0.4498375186
Bq        -0.2177008117     2.4326729493     0.2521882894
Bq        -0.2611286708     2.4474134045     0.5486621332
Bq        -0.2032248586     2.4277594642     0.1533636749
Bq        -0.2756046238     2.4523268896     0.6474867478
Bq        -0.1887489056     2.4228459791     0.0545390603
Bq        -0.2900805769     2.4572403747     0.7463113624
Bq        -0.1742729525     2.4179324940    -0.0442855543
Bq        -0.3045565299     2.4621538598     0.8451359769
Bq        -0.1597969995     2.4130190089    -0.1431101689
Bq        -0.2321767647     2.4375864343     0.3510129040
Bq        -0.2459405838     2.5423791348     0.4449759138
Bq        -0.2169886777     2.5325521646     0.2473266847
Bq        -0.2604165368     2.5472926199     0.5438005284
Bq        -0.2025127247     2.5276386796     0.1485020701
Bq        -0.2748924899     2.5522061050     0.6426251430
Bq        -0.1880367716     2.5227251945     0.0496774555
Bq        -0.2893684429     2.5571195900     0.7414497576
Bq        -0.1735608186     2.5178117094    -0.0491471591
Bq        -0.3038443960     2.5620330751     0.8402743722
Bq        -0.1590848655     2.5128982243    -0.1479717737
Bq        -0.2314646308     2.5374656497     0.3461512993
Bq        -0.2452284499     2.6422583502     0.4401143091
Bq        -0.2162765438     2.6324313800     0.2424650799
Bq        -0.2597044029     2.6471718353     0.5389389237
Bq        -0.2018005907     2.6275178949     0.1436404653
Bq        -0.2741803559     2.6520853203     0.6377635382
Bq        -0.1873246377     2.6226044098     0.0448158507
Bq        -0.2886563090     2.6569988054     0.7365881528
Bq        -0.1728486846     2.6176909248    -0.0540087638
Bq        -0.3031322620     2.6619122905     0.8354127674
Bq        -0.1583727316     2.6127774397    -0.1528333784
Bq        -0.2307524968     2.6373448651     0.3412896945
Bq        -0.2445163159     2.7421375656     0.4352527043
Bq        -0.2155644098     2.7323105954     0.2376034751
Bq        -0.2589922690     2.7470510506     0.5340773189
Bq        -0.2010884568     2.7273971103     0.1387788606
Bq        -0.2734682220     2.7519645357     0.6329019335
Bq        -0.1866125037     2.7224836252     0.0399542460
Bq        -0.2879441750     2.7568780208     0.7317265481
Bq        -0.1721365507     2.7175701401    -0.0588703686
Bq        -0.3024201281     2.7617915059     0.8305511626
Bq        -0.1576605977     2.7126566551    -0.1576949832
Bq        -0.2300403629     2.7372240805     0.3364280897
Bq        -0.2438041820     2.8420167809     0.4303910995
Bq        -0.2148522759     2.8321898108     0.2327418704
Bq        -0.2582801350     2.8469302660     0.5292157141
Bq        -0.2003763228     2.8272763257     0.1339172558
Bq        -0.2727560881     2.8518437511     0.6280403287
Bq        -0.1859003698     2.8223628406     0.0350926412
Bq        -0.2872320411     2.8567572362     0.7268649433
Bq        -0.1714244168     2.8174493555    -0.0637319734
Bq        -0.3017079942     2.8616707213     0.8256895579
Bq        -0.1569484637     2.8125358704    -0.1625565880
Bq        -0.2293282289     2.8371032959     0.3315664850
Bq        -0.2430920480     2.9418959963     0.4255294948
Bq        -0.2141401419     2.9320690261     0.2278802656
Bq        -0.2575680011     2.9468094814     0.5243541094
Bq        -0.1996641889     2.9271555411     0.1290556510
Bq        -0.2720439541     2.9517229665     0.6231787239
Bq        -0.1851882359     2.9222420560     0.0302310364
Bq        -0.2865199072     2.9566364516     0.7220033385
Bq        -0.1707122828     2.9173285709    -0.0685935781
Bq        -0.3009958602     2.9615499366     0.8208279531
Bq        -0.1562363298     2.9124150858    -0.1674181927
Bq        -0.2286160950     2.9369825112     0.3267048802
Bq        -0.2423799141     3.0417752117     0.4206678900
Bq        -0.2134280080     3.0319482415     0.2230186608
Bq        -0.2568558671     3.0466886968     0.5194925046
Bq        -0.1989520550     3.0270347564     0.1241940463
Bq        -0.2713318202     3.0516021819     0.6183171192
Bq        -0.1844761019     3.0221212714     0.0253694317
Bq        -0.2858077732     3.0565156669     0.7171417338
Bq        -0.1700001489     3.0172077863    -0.0734551829
Bq        -0.3002837263     3.0614291520     0.8159663483
Bq        -0.1555241958     3.0122943012    -0.1722797975
Bq        -0.2279039610     3.0368617266     0.3218432754
Bq        -0.2416677801     3.1416544271     0.4158062852
Bq        -0.2127158741     3.1318274569     0.2181570561
Bq        -0.2561437332     3.1465679121     0.5146308998
Bq        -0.1982399210     3.1269139718     0.1193324415
Bq        -0.2706196862     3.1514813972     0.6134555144
Bq        -0.1837639680     3.1220004867     0.0205078269
Bq        -0.2850956393     3.1563948823     0.7122801290
Bq        -0.1692880149     3.1170870017    -0.0783167877
Bq        -0.2995715923     3.1613083674     0.8111047436
Bq        -0.1548120619     3.1121735166    -0.1771414023
Bq        -0.2271918271     3.1367409420     0.3169816707
Bq        -0.2409556462     3.2415336424     0.4109446805
Bq        -0.2120037401     3.2317066723     0.2132954513
Bq        -0.2554315993     3.2464471275     0.5097692951
Bq        -0.1975277871     3.2267931872     0.1144708367
Bq        -0.2699075523     3.2513606126     0.6085939096
Bq        -0.1830518340     3.2218797021     0.0156462221
Bq        -0.2843835053     3.2562740977     0.7074185242
Bq        -0.1685758810     3.2169662170    -0.0831783924
Bq        -0.2988594584     3.2611875828     0.8062431388
Bq        -0.1540999279     3.2120527319    -0.1820030070
Bq        -0.2264796932     3.2366201574     0.3121200659
Bq        -0.2402435123     3.3414128578     0.4060830757
Bq        -0.2112916062     3.3315858877     0.2084338465
Bq        -0.2547194653     3.3463263429     0.5049076903
Bq        -0.1968156531     3.3266724026     0.1096092320
Bq        -0.2691954184     3.3512398280     0.6037323049
Bq        -0.1823397001     3.3217589175     0.0107846174
Bq        -0.2836713714     3.3561533131     0.7025569195
Bq        -0.1678637470     3.3168454324    -0.0880399972
Bq        -0.2981473244     3.3610667981     0.8013815340
Bq        -0.1533877940     3.3119319473    -0.1868646118
Bq        -0.2257675592     3.3364993727     0.3072584611
Bq        -0.2395313783     3.4412920732     0.4012214709
Bq        -0.2105794722     3.4314651030     0.2035722418
Bq        -0.2540073314     3.4462055583     0.5000460855
Bq        -0.1961035192     3.4265516179     0.1047476272
Bq        -0.2684832844     3.4511190434     0.5988707001
Bq        -0.1816275661     3.4216381329     0.0059230126
Bq        -0.2829592375     3.4560325284     0.6976953147
Bq        -0.1671516131     3.4167246478    -0.0929016020
Bq        -0.2974351905     3.4609460135     0.7965199293
Bq        -0.1526756601     3.4118111627    -0.1917262166
Bq        -0.2250554253     3.4363785881     0.3023968564
Bq        -0.2388192444     3.5411712886     0.3963598662
Bq        -0.2098673383     3.5313443184     0.1987106370
Bq        -0.2532951974     3.5460847737     0.4951844808
Bq        -0.1953913852     3.5264308333     0.0998860224
Bq        -0.2677711505     3.5509982587     0.5940090953
Bq        -0.1809154322     3.5215173482     0.0010614078
Bq        -0.2822471035     3.5559117438     0.6928337099
Bq        -0.1664394792     3.5166038632    -0.0977632067
Bq        -0.2967230566     3.5608252289     0.7916583245
Bq        -0.1519635261     3.5116903781    -0.1965878213
Bq        -0.2243432913     3.5362578035     0.2975352516
Bq        -0.2381071104     3.6410505039     0.3914982614
Bq        -0.2091552044     3.6312235338     0.1938490322
Bq        -0.2525830635     3.6459639890     0.4903228760
Bq        -0.1946792513     3.6263100487     0.0950244177
Bq        -0.2670590165     3.6508774741     0.5891474906
Bq        -0.1802032983     3.6213965636    -0.0038001969
Bq        -0.2815349696     3.6557909592     0.6879721052
Bq        -0.1657273452     3.6164830785    -0.1026248115
Bq        -0.2960109226     3.6607044443     0.7867967197
Bq        -0.1512513922     3.6115695935    -0.2014494261
Bq        -0.2236311574     3.6361370189     0.2926736468
Bq        -0.2373949765     3.7409297193     0.3866366566
Bq        -0.2084430704     3.7311027492     0.1889874275
Bq        -0.2518709295     3.7458432044     0.4854612712
Bq        -0.1939671174     3.7261892641     0.0901628129
Bq        -0.2663468826     3.7507566895     0.5842858858
Bq        -0.1794911643     3.7212757790    -0.0086618017
Bq        -0.2808228356     3.7556701746     0.6831105004
Bq        -0.1650152113     3.7163622939    -0.1074864163
Bq        -0.2952987887     3.7605836597     0.7819351150
Bq        -0.1505392582     3.7114488088    -0.2063110309
Bq        -0.2229190235     3.7360162342     0.2878120421
Bq        -0.2366828426     3.8408089347     0.3817750519
Bq        -0.2077309365     3.8309819645     0.1841258227
Bq        -0.2511587956     3.8457224198     0.4805996665
Bq        -0.1932549834     3.8260684795     0.0853012081
Bq        -0.2656347486     3.8506359049     0.5794242810
Bq        -0.1787790304     3.8211549944    -0.0135234065
Bq        -0.2801107017     3.8555493900     0.6782488956
Bq        -0.1643030773     3.8162415093    -0.1123480210
Bq        -0.2945866547     3.8604628750     0.7770735102
Bq        -0.1498271243     3.8113280242    -0.2111726356
Bq        -0.2222068895     3.8358954496     0.2829504373

1
2
3
4
5
6
7
8
9
10
11
12
13
14
15
16
17
18
19
20
21
22
23
24
25
26
27
28
29
30
31
32
33
34
35
36
37
38
39
40
41
42
43
44
45
46
47
48
49
50
51
52
53
54
55
56
57
58
59
60
61
62
63
64
65
66
67
68
69
70
71
72
73
74
75
76
77
78
79
80
81
82
83
84
85
86
87
88
89
90
91
92
93
94
95
96
97
98
99
100
101
102
103
104
105
106
107
108
109
110
111
112
113
114
115
116
117
118
119
120
121
122
123
124
125
126
127
128
129
130
131
132
133
134
135
136
137
138
139
140
141
142
143
144
145
146
147
148
149
150
151
152
153
154
155
156
157
158
159
160
161
162
163
164
165
166
167
168
169
170
171
172
173
174
175
176
177
178
179
180
181
182
183
184
185
186
187
188
189
190
191
192
193
194
195
196
197
198
199
200
201
202
203
204
205
206
207
208
209
210
211
212
213
214
215
216
217
218
219
220
221
222
223
224
225
226
227
228
229
230
231
232
233
234
235
236

