%nproc=8
%mem=1000MB
# rb3lyp/6-311+g** NMR geom=connectivity

Title

0 1
C    -4.0500558   -0.5771862    0.8136712
H    -5.0263804   -1.0082727    1.0024760
C    -3.9381552    0.6617804    0.2400876
H    -4.8252424    1.2338890   -0.0111295
C    -2.6768410    1.2433246    0.0057578
C    -1.4974121    0.5051527    0.2848253
C    -1.6508332   -0.7338728    0.9404026
H    -0.7713646   -1.2730967    1.2633753
C    -2.8898548   -1.2624035    1.1994307
H    -2.9683706   -2.2124563    1.7152676
C    -2.5773185    2.5963696   -0.4192930
H    -3.4870728    3.1412239   -0.6474055
C    -1.3741895    3.2147896   -0.4364030
H    -1.2997315    4.2742019   -0.6578144
C    -0.1719488    2.4994090   -0.1734588
C    -0.2043917    1.1018437    0.0192689
C     1.0513491    3.2042560   -0.0676222
H     1.0427344    4.2819499   -0.1896997
C     2.1942091    2.5487446    0.2579577
H     3.1168527    3.0912848    0.4334727
C     2.2216473    1.1336562    0.2934990
C     1.0486931    0.3945528    0.0302412
C     3.4483363    0.4614633    0.5573939
H     4.3095794    1.0606054    0.8334846
C     3.5427346   -0.8855926    0.4749463
H     4.4731467   -1.3939704    0.7038822
C     2.4490052   -1.6474447   -0.0196319
C     1.2150704   -1.0057258   -0.3013573
C     0.2531113   -1.7434440   -1.0216591
H    -0.6541356   -1.2535051   -1.3462847
C     0.4494193   -3.0628597   -1.3413779
H    -0.3083162   -3.5944309   -1.9054060
C     1.6251726   -3.7207967   -0.9552541
H     1.7670048   -4.7687404   -1.1927019
C     2.6109872   -3.0144177   -0.3183050
H     3.5525612   -3.4902813   -0.0646367
Bq         0.5910084880    -0.0039166950     0.0594908505
Bq         0.4626141664    -0.0750549901     0.5374597210
Bq         0.6166873523     0.0103109641    -0.0361029235
Bq         0.4369353020    -0.0892826491     0.6330534951
Bq         0.6423662166     0.0245386231    -0.1316966976
Bq         0.4112564377    -0.1035103082     0.7286472692
Bq         0.6680450809     0.0387662821    -0.2272904717
Bq         0.5396507593    -0.0323720130     0.2506783987
Bq         0.5102808445     0.0523830220     0.3600127124
Bq         0.5616385731     0.0808383400     0.1688251642
Bq         0.4846019801     0.0381553629     0.4556064865
Bq         0.5873174374     0.0950659991     0.0732313901
Bq         0.4589231158     0.0239277039     0.5512002606
Bq         0.6129963018     0.1092936581    -0.0223623840
Bq         0.4332442515     0.0097000449     0.6467940347
Bq         0.6386751661     0.1235213171    -0.1179561581
Bq         0.4075653872    -0.0045276141     0.7423878088
Bq         0.6643540304     0.1377489761    -0.2135499322
Bq         0.5359597088     0.0666106810     0.2644189383
Bq         0.5065897939     0.1513657160     0.3737532520
Bq         0.5579475226     0.1798210341     0.1825657038
Bq         0.4809109296     0.1371380570     0.4693470260
Bq         0.5836263869     0.1940486931     0.0869719297
Bq         0.4552320653     0.1229103980     0.5649408001
Bq         0.6093052512     0.2082763521    -0.0086218444
Bq         0.4295532010     0.1086827389     0.6605345742
Bq         0.6349841155     0.2225040112    -0.1042156185
Bq         0.4038743366     0.0944550799     0.7561283483
Bq         0.6606629799     0.2367316702    -0.1998093926
Bq         0.5322686583     0.1655933750     0.2781594779
Bq         0.5028987434     0.2503484100     0.3874937915
Bq         0.5542564720     0.2788037281     0.1963062433
Bq         0.4772198791     0.2361207510     0.4830875656
Bq         0.5799353364     0.2930313871     0.1007124692
Bq         0.4515410147     0.2218930920     0.5786813397
Bq         0.6056142007     0.3072590462     0.0051186951
Bq         0.4258621504     0.2076654330     0.6742751138
Bq         0.6312930650     0.3214867052    -0.0904750790
Bq         0.4001832861     0.1934377739     0.7698688879
Bq         0.6569719293     0.3357143642    -0.1860688531
Bq         0.5285776077     0.2645760691     0.2919000174
Bq         0.4992076929     0.3493311041     0.4012343311
Bq         0.5505654215     0.3777864221     0.2100467829
Bq         0.4735288285     0.3351034451     0.4968281052
Bq         0.5762442858     0.3920140812     0.1144530088
Bq         0.4478499642     0.3208757860     0.5924218793
Bq         0.6019231501     0.4062417402     0.0188592347
Bq         0.4221710999     0.3066481270     0.6880156534
Bq         0.6276020145     0.4204693992    -0.0767345394
Bq         0.3964922356     0.2924204680     0.7836094274
Bq         0.6532808788     0.4346970583    -0.1723283135
Bq         0.5248865572     0.3635587631     0.3056405570
Bq         0.4955166423     0.4483137981     0.4149748706
Bq         0.5468743710     0.4767691162     0.2237873224
Bq         0.4698377780     0.4340861391     0.5105686447
Bq         0.5725532353     0.4909967752     0.1281935483
Bq         0.4441589137     0.4198584801     0.6061624188
Bq         0.5982320996     0.5052244342     0.0325997742
Bq         0.4184800494     0.4056308210     0.7017561929
Bq         0.6239109639     0.5194520933    -0.0629939998
Bq         0.3928011850     0.3914031620     0.7973499670
Bq         0.6495898283     0.5336797523    -0.1585877739
Bq         0.5211955066     0.4625414571     0.3193810965
Bq         0.4918255918     0.5472964922     0.4287154102
Bq         0.5431833204     0.5757518102     0.2375278620
Bq         0.4661467275     0.5330688331     0.5243091843
Bq         0.5688621848     0.5899794692     0.1419340879
Bq         0.4404678631     0.5188411741     0.6199029584
Bq         0.5945410491     0.6042071283     0.0463403138
Bq         0.4147889988     0.5046135151     0.7154967325
Bq         0.6202199134     0.6184347873    -0.0492534603
Bq         0.3891101345     0.4903858560     0.8110905066
Bq         0.6458987777     0.6326624463    -0.1448472344
Bq         0.5175044561     0.5615241512     0.3331216361
Bq         0.4881345413     0.6462791862     0.4424559497
Bq         0.5394922699     0.6747345042     0.2512684016
Bq         0.4624556769     0.6320515272     0.5380497238
Bq         0.5651711342     0.6889621633     0.1556746275
Bq         0.4367768126     0.6178238681     0.6336434979
Bq         0.5908499985     0.7031898223     0.0600808534
Bq         0.4110979483     0.6035962091     0.7292372720
Bq         0.6165288629     0.7174174813    -0.0355129207
Bq         0.3854190840     0.5893685501     0.8248310461
Bq         0.6422077272     0.7316451404    -0.1311066948
Bq         0.5138134056     0.6605068452     0.3468621757
Bq         0.4844434907     0.7452618802     0.4561964893
Bq         0.5358012194     0.7737171983     0.2650089411
Bq         0.4587646264     0.7310342212     0.5517902634
Bq         0.5614800837     0.7879448573     0.1694151670
Bq         0.4330857621     0.7168065622     0.6473840375
Bq         0.5871589480     0.8021725163     0.0738213929
Bq         0.4074068978     0.7025789031     0.7429778116
Bq         0.6128378123     0.8164001754    -0.0217723812
Bq         0.3817280334     0.6883512441     0.8385715857
Bq         0.6385166767     0.8306278344    -0.1173661553
Bq         0.5101223550     0.7594895393     0.3606027152
Bq         0.4807524402     0.8442445743     0.4699370289
Bq         0.5321101688     0.8726998923     0.2787494807
Bq         0.4550735759     0.8300169152     0.5655308030
Bq         0.5577890332     0.8869275513     0.1831557066
Bq         0.4293947115     0.8157892562     0.6611245771
Bq         0.5834678975     0.9011552104     0.0875619325
Bq         0.4037158472     0.8015615972     0.7567183511
Bq         0.6091467618     0.9153828694    -0.0080318416
Bq         0.3780369829     0.7873339381     0.8523121252
Bq         0.6348256261     0.9296105284    -0.1036256157
Bq         0.5064313045     0.8584722333     0.3743432548
Bq         0.4770613896     0.9432272683     0.4836775684
Bq         0.5284191183     0.9716825864     0.2924900202
Bq         0.4513825253     0.9289996093     0.5792713425
Bq         0.5540979826     0.9859102454     0.1968962461
Bq         0.4257036610     0.9147719502     0.6748651166
Bq         0.5797768469     1.0001379044     0.1013024720
Bq         0.4000247967     0.9005442912     0.7704588907
Bq         0.6054557113     1.0143655634     0.0057086979
Bq         0.3743459324     0.8863166322     0.8660526648
Bq         0.6311345756     1.0285932225    -0.0898850761
Bq         0.5027402540     0.9574549273     0.3880837943
Bq         0.4733703391     1.0422099623     0.4974181080
Bq         0.5247280678     1.0706652804     0.3062305598
Bq         0.4476914748     1.0279823033     0.5930118821
Bq         0.5504069321     1.0848929394     0.2106367857
Bq         0.4220126105     1.0137546443     0.6886056562
Bq         0.5760857964     1.0991205984     0.1150430116
Bq         0.3963337461     0.9995269852     0.7841994303
Bq         0.6017646607     1.1133482575     0.0194492375
Bq         0.3706548818     0.9852993262     0.8797932044
Bq         0.6274435250     1.1275759165    -0.0761445366
Bq         0.4990492034     1.0564376214     0.4018243339
Bq         0.4696792886     1.1411926564     0.5111586475
Bq         0.5210370172     1.1696479744     0.3199710993
Bq         0.4440004243     1.1269649973     0.6067524216
Bq         0.5467158815     1.1838756335     0.2243773253
Bq         0.4183215599     1.1127373383     0.7023461957
Bq         0.5723947459     1.1981032925     0.1287835512
Bq         0.3926426956     1.0985096793     0.7979399698
Bq         0.5980736102     1.2123309515     0.0331897771
Bq         0.3669638313     1.0842820203     0.8935337439
Bq         0.6237524745     1.2265586105    -0.0624039970
Bq         0.4953581529     1.1554203154     0.4155648734
Bq         0.4659882380     1.2401753504     0.5248991871
Bq         0.5173459667     1.2686306685     0.3337116389
Bq         0.4403093737     1.2259476914     0.6204929612
Bq         0.5430248310     1.2828583275     0.2381178648
Bq         0.4146305094     1.2117200323     0.7160867353
Bq         0.5687036953     1.2970859865     0.1425240907
Bq         0.3889516451     1.1974923733     0.8116805094
Bq         0.5943825597     1.3113136455     0.0469303166
Bq         0.3632727808     1.1832647143     0.9072742835
Bq         0.6200614240     1.3255413046    -0.0486634575
Bq         0.4916671024     1.2544030094     0.4293054130
Bq         0.4622971875     1.3391580444     0.5386397267
Bq         0.5136549162     1.3676133625     0.3474521785
Bq         0.4366183232     1.3249303854     0.6342335008
Bq         0.5393337805     1.3818410215     0.2518584044
Bq         0.4109394589     1.3107027264     0.7298272748
Bq         0.5650126448     1.3960686806     0.1562646303
Bq         0.3852605945     1.2964750674     0.8254210489
Bq         0.5906915091     1.4102963396     0.0606708562
Bq         0.3595817302     1.2822474083     0.9210148230
Bq         0.6163703734     1.4245239986    -0.0349229179
Bq         0.4879760518     1.3533857035     0.4430459526
Bq         0.4586061370     1.4381407385     0.5523802662
Bq         0.5099638656     1.4665960565     0.3611927180
Bq         0.4329272726     1.4239130794     0.6479740403
Bq         0.5356427299     1.4808237156     0.2655989439
Bq         0.4072484083     1.4096854204     0.7435678144
Bq         0.5613215943     1.4950513746     0.1700051698
Bq         0.3815695440     1.3954577614     0.8391615885
Bq         0.5870004586     1.5092790336     0.0744113957
Bq         0.3558906797     1.3812301024     0.9347553626
Bq         0.6126793229     1.5235066926    -0.0211823784
Bq         0.4842850013     1.4523683975     0.4567864921
Bq         0.4549150864     1.5371234325     0.5661208058
Bq         0.5062728151     1.5655787506     0.3749332576
Bq         0.4292362221     1.5228957735     0.6617145799
Bq         0.5319516794     1.5798064096     0.2793394835
Bq         0.4035573578     1.5086681145     0.7573083540
Bq         0.5576305437     1.5940340686     0.1837457094
Bq         0.3778784935     1.4944404554     0.8529021281
Bq         0.5833094080     1.6082617277     0.0881519353
Bq         0.3521996291     1.4802127964     0.9484959022
Bq         0.6089882724     1.6224893867    -0.0074418388
Bq         0.4805939508     1.5513510915     0.4705270317
Bq         0.4512240359     1.6361061265     0.5798613453
Bq         0.5025817645     1.6645614446     0.3886737971
Bq         0.4255451716     1.6218784675     0.6754551194
Bq         0.5282606289     1.6787891036     0.2930800230
Bq         0.3998663073     1.6076508085     0.7710488935
Bq         0.5539394932     1.6930167627     0.1974862490
Bq         0.3741874429     1.5934231495     0.8666426676
Bq         0.5796183575     1.7072444217     0.1018924749
Bq         0.3485085786     1.5791954904     0.9622364417
Bq         0.6052972218     1.7214720807     0.0062987008
Bq         0.4769029002     1.6503337856     0.4842675712
Bq         0.4475329854     1.7350888206     0.5936018849
Bq         0.4988907140     1.7635441386     0.4024143367
Bq         0.4218541210     1.7208611616     0.6891956590
Bq         0.5245695783     1.7777717977     0.3068205626
Bq         0.3961752567     1.7066335025     0.7847894331

1
2
3
4
5
6
7
8
9
10
11
12
13
14
15
16
17
18
19
20
21
22
23
24
25
26
27
28
29
30
31
32
33
34
35
36
37
38
39
40
41
42
43
44
45
46
47
48
49
50
51
52
53
54
55
56
57
58
59
60
61
62
63
64
65
66
67
68
69
70
71
72
73
74
75
76
77
78
79
80
81
82
83
84
85
86
87
88
89
90
91
92
93
94
95
96
97
98
99
100
101
102
103
104
105
106
107
108
109
110
111
112
113
114
115
116
117
118
119
120
121
122
123
124
125
126
127
128
129
130
131
132
133
134
135
136
137
138
139
140
141
142
143
144
145
146
147
148
149
150
151
152
153
154
155
156
157
158
159
160
161
162
163
164
165
166
167
168
169
170
171
172
173
174
175
176
177
178
179
180
181
182
183
184
185
186
187
188
189
190
191
192
193
194
195
196
197
198
199
200
201
202
203
204
205
206
207
208
209
210
211
212
213
214
215
216
217
218
219
220
221
222
223
224
225
226
227
228
229
230
231
232
233
234
235
236

