%nproc=8
%mem=1000MB
# rb3lyp/6-311+g** NMR geom=connectivity

Title

0 1
C    -4.0500558   -0.5771862    0.8136712
H    -5.0263804   -1.0082727    1.0024760
C    -3.9381552    0.6617804    0.2400876
H    -4.8252424    1.2338890   -0.0111295
C    -2.6768410    1.2433246    0.0057578
C    -1.4974121    0.5051527    0.2848253
C    -1.6508332   -0.7338728    0.9404026
H    -0.7713646   -1.2730967    1.2633753
C    -2.8898548   -1.2624035    1.1994307
H    -2.9683706   -2.2124563    1.7152676
C    -2.5773185    2.5963696   -0.4192930
H    -3.4870728    3.1412239   -0.6474055
C    -1.3741895    3.2147896   -0.4364030
H    -1.2997315    4.2742019   -0.6578144
C    -0.1719488    2.4994090   -0.1734588
C    -0.2043917    1.1018437    0.0192689
C     1.0513491    3.2042560   -0.0676222
H     1.0427344    4.2819499   -0.1896997
C     2.1942091    2.5487446    0.2579577
H     3.1168527    3.0912848    0.4334727
C     2.2216473    1.1336562    0.2934990
C     1.0486931    0.3945528    0.0302412
C     3.4483363    0.4614633    0.5573939
H     4.3095794    1.0606054    0.8334846
C     3.5427346   -0.8855926    0.4749463
H     4.4731467   -1.3939704    0.7038822
C     2.4490052   -1.6474447   -0.0196319
C     1.2150704   -1.0057258   -0.3013573
C     0.2531113   -1.7434440   -1.0216591
H    -0.6541356   -1.2535051   -1.3462847
C     0.4494193   -3.0628597   -1.3413779
H    -0.3083162   -3.5944309   -1.9054060
C     1.6251726   -3.7207967   -0.9552541
H     1.7670048   -4.7687404   -1.1927019
C     2.6109872   -3.0144177   -0.3183050
H     3.5525612   -3.4902813   -0.0646367
Bq         1.8504524256    -2.2197503624     0.5993984629
Bq         2.1693465359    -2.0068251536    -0.1027193348
Bq         1.8105906618    -2.2463660136     0.6871631876
Bq         2.2092082997    -1.9802095025    -0.1904840595
Bq         2.0098994807    -2.1132877580     0.2483395641
Bq         1.9590312436    -2.0435104264     0.3603375392
Bq         2.0387547711    -1.9902791242     0.1848080898
Bq         1.9191694798    -2.0701260775     0.4481022639
Bq         2.0786165349    -1.9636634731     0.0970433651
Bq         1.8793077160    -2.0967417286     0.5358669886
Bq         2.1184782987    -1.9370478220     0.0092786404
Bq         1.8394459522    -2.1233573797     0.6236317134
Bq         2.1583400625    -1.9104321709    -0.0784860843
Bq         1.7995841884    -2.1499730308     0.7113964381
Bq         2.1982018263    -1.8838165198    -0.1662508091
Bq         1.9988930074    -2.0168947753     0.2725728145
Bq         1.9480247702    -1.9471174437     0.3845707897
Bq         2.0277482978    -1.8938861415     0.2090413403
Bq         1.9081630064    -1.9737330948     0.4723355144
Bq         2.0676100616    -1.8672704904     0.1212766155
Bq         1.8683012426    -2.0003487459     0.5601002391
Bq         2.1074718253    -1.8406548393     0.0335118908
Bq         1.8284394788    -2.0269643970     0.6478649638
Bq         2.1473335891    -1.8140391882    -0.0542528339
Bq         1.7885777150    -2.0535800481     0.7356296885
Bq         2.1871953529    -1.7874235371    -0.1420175586
Bq         1.9878865340    -1.9205017926     0.2968060650
Bq         1.9370182968    -1.8507244610     0.4088040401
Bq         2.0167418244    -1.7974931588     0.2332745907
Bq         1.8971565330    -1.8773401121     0.4965687649
Bq         2.0566035882    -1.7708775077     0.1455098660
Bq         1.8572947693    -1.9039557632     0.5843334896
Bq         2.0964653520    -1.7442618566     0.0577451413
Bq         1.8174330055    -1.9305714143     0.6720982143
Bq         2.1363271158    -1.7176462055    -0.0300195834
Bq         1.7775712417    -1.9571870654     0.7598629390
Bq         2.1761888796    -1.6910305543    -0.1177843081
Bq         1.9768800606    -1.8241088099     0.3210393154
Bq         1.9260118235    -1.7543314783     0.4330372906
Bq         2.0057353510    -1.7011001761     0.2575078412
Bq         1.8861500597    -1.7809471294     0.5208020153
Bq         2.0455971148    -1.6744845250     0.1697431165
Bq         1.8462882959    -1.8075627805     0.6085667400
Bq         2.0854588786    -1.6478688739     0.0819783917
Bq         1.8064265321    -1.8341784316     0.6963314647
Bq         2.1253206424    -1.6212532227    -0.0057863330
Bq         1.7665647683    -1.8607940827     0.7840961894
Bq         2.1651824062    -1.5946375716    -0.0935510577
Bq         1.9658735872    -1.7277158272     0.3452725659
Bq         1.9150053501    -1.6579384956     0.4572705411
Bq         1.9947288777    -1.6047071934     0.2817410916
Bq         1.8751435863    -1.6845541467     0.5450352658
Bq         2.0345906414    -1.5780915422     0.1939763669
Bq         1.8352818225    -1.7111697978     0.6327999905
Bq         2.0744524052    -1.5514758911     0.1062116422
Bq         1.7954200587    -1.7377854489     0.7205647152
Bq         2.1143141690    -1.5248602400     0.0184469175
Bq         1.7555582949    -1.7644011000     0.8083294399
Bq         2.1541759328    -1.4982445889    -0.0693178072
Bq         1.9548671139    -1.6313228445     0.3695058163
Bq         1.9039988767    -1.5615455129     0.4815037915
Bq         1.9837224043    -1.5083142106     0.3059743421
Bq         1.8641371129    -1.5881611640     0.5692685162
Bq         2.0235841681    -1.4816985595     0.2182096174
Bq         1.8242753491    -1.6147768151     0.6570332409
Bq         2.0634459319    -1.4550829084     0.1304448927
Bq         1.7844135853    -1.6413924662     0.7447979656
Bq         2.1033076956    -1.4284672573     0.0426801679
Bq         1.7445518216    -1.6680081173     0.8325626904
Bq         2.1431694594    -1.4018516062    -0.0450845568
Bq         1.9438606405    -1.5349298617     0.3937390668
Bq         1.8929924033    -1.4651525301     0.5057370420
Bq         1.9727159309    -1.4119212279     0.3302075925
Bq         1.8531306395    -1.4917681812     0.5935017667
Bq         2.0125776947    -1.3853055768     0.2424428678
Bq         1.8132688758    -1.5183838324     0.6812664914
Bq         2.0524394585    -1.3586899257     0.1546781431
Bq         1.7734071120    -1.5449994835     0.7690312161
Bq         2.0923012223    -1.3320742746     0.0669134184
Bq         1.7335453482    -1.5716151346     0.8567959408
Bq         2.1321629861    -1.3054586235    -0.0208513063
Bq         1.9328541671    -1.4385368790     0.4179723173
Bq         1.8819859300    -1.3687595474     0.5299702924
Bq         1.9617094575    -1.3155282452     0.3544408430
Bq         1.8421241662    -1.3953751985     0.6177350171
Bq         2.0015712213    -1.2889125941     0.2666761183
Bq         1.8022624024    -1.4219908496     0.7054997419
Bq         2.0414329851    -1.2622969430     0.1789113936
Bq         1.7624006386    -1.4486065008     0.7932644666
Bq         2.0812947489    -1.2356812919     0.0911466689
Bq         1.7225388748    -1.4752221519     0.8810291913
Bq         2.1211565127    -1.2090656408     0.0033819442
Bq         1.9218476938    -1.3421438963     0.4422055677
Bq         1.8709794566    -1.2723665647     0.5542035429
Bq         1.9507029842    -1.2191352625     0.3786740935
Bq         1.8311176928    -1.2989822158     0.6419682676
Bq         1.9905647480    -1.1925196114     0.2909093687
Bq         1.7912559290    -1.3255978669     0.7297329923
Bq         2.0304265117    -1.1659039603     0.2031446440
Bq         1.7513941652    -1.3522135180     0.8174977170
Bq         2.0702882755    -1.1392883092     0.1153799193
Bq         1.7115324014    -1.3788291691     0.9052624417
Bq         2.1101500393    -1.1126726581     0.0276151946
Bq         1.9108412204    -1.2457509136     0.4664388182
Bq         1.8599729832    -1.1759735820     0.5784367933
Bq         1.9396965108    -1.1227422798     0.4029073439
Bq         1.8201112194    -1.2025892331     0.6662015181
Bq         1.9795582746    -1.0961266287     0.3151426192
Bq         1.7802494556    -1.2292048842     0.7539662428
Bq         2.0194200384    -1.0695109776     0.2273778945
Bq         1.7403876919    -1.2558205353     0.8417309675
Bq         2.0592818022    -1.0428953265     0.1396131698
Bq         1.7005259281    -1.2824361864     0.9294956922
Bq         2.0991435659    -1.0162796754     0.0518484451
Bq         1.8998347470    -1.1493579309     0.4906720686
Bq         1.8489665098    -1.0795805993     0.6026700438
Bq         1.9286900374    -1.0263492971     0.4271405944
Bq         1.8091047461    -1.1061962504     0.6904347685
Bq         1.9685518012    -0.9997336460     0.3393758697
Bq         1.7692429823    -1.1328119015     0.7781994932
Bq         2.0084135650    -0.9731179949     0.2516111450
Bq         1.7293812185    -1.1594275526     0.8659642179
Bq         2.0482753288    -0.9465023438     0.1638464202
Bq         1.6895194547    -1.1860432037     0.9537289427
Bq         2.0881370926    -0.9198866927     0.0760816955
Bq         1.8888282736    -1.0529649482     0.5149053191
Bq         1.8379600365    -0.9831876166     0.6269032943
Bq         1.9176835641    -0.9299563144     0.4513738448
Bq         1.7980982727    -1.0098032677     0.7146680190
Bq         1.9575453278    -0.9033406633     0.3636091201
Bq         1.7582365089    -1.0364189188     0.8024327437
Bq         1.9974070916    -0.8767250122     0.2758443954
Bq         1.7183747451    -1.0630345699     0.8901974684
Bq         2.0372688554    -0.8501093610     0.1880796707
Bq         1.6785129813    -1.0896502210     0.9779621931
Bq         2.0771306192    -0.8234937099     0.1003149460
Bq         1.8778218003    -0.9565719655     0.5391385695
Bq         1.8269535631    -0.8867946339     0.6511365447
Bq         1.9066770907    -0.8335633317     0.4756070953
Bq         1.7870917993    -0.9134102850     0.7389012694
Bq         1.9465388545    -0.8069476805     0.3878423706
Bq         1.7472300355    -0.9400259361     0.8266659941
Bq         1.9864006183    -0.7803320294     0.3000776459
Bq         1.7073682717    -0.9666415872     0.9144307189
Bq         2.0262623820    -0.7537163783     0.2123129212
Bq         1.6675065080    -0.9932572383     1.0021954436
Bq         2.0661241458    -0.7271007272     0.1245481964
Bq         1.8668153269    -0.8601789828     0.5633718200
Bq         1.8159470897    -0.7904016512     0.6753697952
Bq         1.8956706173    -0.7371703489     0.4998403458
Bq         1.7760853259    -0.8170173023     0.7631345199
Bq         1.9355323811    -0.7105546978     0.4120756210
Bq         1.7362235622    -0.8436329534     0.8508992446
Bq         1.9753941449    -0.6839390467     0.3243108963
Bq         1.6963617984    -0.8702486045     0.9386639693
Bq         2.0152559087    -0.6573233956     0.2365461716
Bq         1.6565000346    -0.8968642556     1.0264286940
Bq         2.0551176725    -0.6307077445     0.1487814469
Bq         1.8558088535    -0.7637860000     0.5876050705
Bq         1.8049406164    -0.6940086684     0.6996030456
Bq         1.8846641439    -0.6407773662     0.5240735962
Bq         1.7650788526    -0.7206243196     0.7873677703
Bq         1.9245259077    -0.6141617151     0.4363088715
Bq         1.7252170888    -0.7472399707     0.8751324951
Bq         1.9643876715    -0.5875460640     0.3485441468
Bq         1.6853553250    -0.7738556218     0.9628972198
Bq         2.0042494353    -0.5609304129     0.2607794221
Bq         1.6454935612    -0.8004712729     1.0506619445
Bq         2.0441111991    -0.5343147618     0.1730146974
Bq         1.8448023801    -0.6673930173     0.6118383209
Bq         1.7939341430    -0.5976156857     0.7238362961
Bq         1.8736576706    -0.5443843835     0.5483068467
Bq         1.7540723792    -0.6242313368     0.8116010208
Bq         1.9135194344    -0.5177687324     0.4605421220
Bq         1.7142106154    -0.6508469879     0.8993657455
Bq         1.9533811981    -0.4911530813     0.3727773972
Bq         1.6743488516    -0.6774626391     0.9871304702
Bq         1.9932429619    -0.4645374302     0.2850126725
Bq         1.6344870878    -0.7040782902     1.0748951949
Bq         2.0331047257    -0.4379217791     0.1972479478
Bq         1.8337959068    -0.5710000346     0.6360715714
Bq         1.7829276696    -0.5012227030     0.7480695465
Bq         1.8626511972    -0.4479914008     0.5725400971
Bq         1.7430659058    -0.5278383541     0.8358342713
Bq         1.9025129610    -0.4213757497     0.4847753724
Bq         1.7032041420    -0.5544540052     0.9235989960
Bq         1.9423747248    -0.3947600986     0.3970106477
Bq         1.6633423783    -0.5810696563     1.0113637207
Bq         1.9822364886    -0.3681444475     0.3092459230
Bq         1.6234806145    -0.6076853074     1.0991284454
Bq         2.0220982523    -0.3415287964     0.2214811983
Bq         1.8227894334    -0.4746070519     0.6603048218
Bq         1.7719211962    -0.4048297203     0.7723027970
Bq         1.8516447238    -0.3515984181     0.5967733476
Bq         1.7320594325    -0.4314453714     0.8600675217
Bq         1.8915064876    -0.3249827670     0.5090086229
Bq         1.6921976687    -0.4580610225     0.9478322464
Bq         1.9313682514    -0.2983671159     0.4212438982
Bq         1.6523359049    -0.4846766736     1.0355969711
Bq         1.9712300152    -0.2717514648     0.3334791734

1
2
3
4
5
6
7
8
9
10
11
12
13
14
15
16
17
18
19
20
21
22
23
24
25
26
27
28
29
30
31
32
33
34
35
36
37
38
39
40
41
42
43
44
45
46
47
48
49
50
51
52
53
54
55
56
57
58
59
60
61
62
63
64
65
66
67
68
69
70
71
72
73
74
75
76
77
78
79
80
81
82
83
84
85
86
87
88
89
90
91
92
93
94
95
96
97
98
99
100
101
102
103
104
105
106
107
108
109
110
111
112
113
114
115
116
117
118
119
120
121
122
123
124
125
126
127
128
129
130
131
132
133
134
135
136
137
138
139
140
141
142
143
144
145
146
147
148
149
150
151
152
153
154
155
156
157
158
159
160
161
162
163
164
165
166
167
168
169
170
171
172
173
174
175
176
177
178
179
180
181
182
183
184
185
186
187
188
189
190
191
192
193
194
195
196
197
198
199
200
201
202
203
204
205
206
207
208
209
210
211
212
213
214
215
216
217
218
219
220
221
222
223
224
225
226
227
228
229
230
231
232
233
234
235
236

