%nproc=8
%mem=1000MB
# rb3lyp/6-311+g** NMR geom=connectivity

Title

0 1
C    -4.0500558   -0.5771862    0.8136712
H    -5.0263804   -1.0082727    1.0024760
C    -3.9381552    0.6617804    0.2400876
H    -4.8252424    1.2338890   -0.0111295
C    -2.6768410    1.2433246    0.0057578
C    -1.4974121    0.5051527    0.2848253
C    -1.6508332   -0.7338728    0.9404026
H    -0.7713646   -1.2730967    1.2633753
C    -2.8898548   -1.2624035    1.1994307
H    -2.9683706   -2.2124563    1.7152676
C    -2.5773185    2.5963696   -0.4192930
H    -3.4870728    3.1412239   -0.6474055
C    -1.3741895    3.2147896   -0.4364030
H    -1.2997315    4.2742019   -0.6578144
C    -0.1719488    2.4994090   -0.1734588
C    -0.2043917    1.1018437    0.0192689
C     1.0513491    3.2042560   -0.0676222
H     1.0427344    4.2819499   -0.1896997
C     2.1942091    2.5487446    0.2579577
H     3.1168527    3.0912848    0.4334727
C     2.2216473    1.1336562    0.2934990
C     1.0486931    0.3945528    0.0302412
C     3.4483363    0.4614633    0.5573939
H     4.3095794    1.0606054    0.8334846
C     3.5427346   -0.8855926    0.4749463
H     4.4731467   -1.3939704    0.7038822
C     2.4490052   -1.6474447   -0.0196319
C     1.2150704   -1.0057258   -0.3013573
C     0.2531113   -1.7434440   -1.0216591
H    -0.6541356   -1.2535051   -1.3462847
C     0.4494193   -3.0628597   -1.3413779
H    -0.3083162   -3.5944309   -1.9054060
C     1.6251726   -3.7207967   -0.9552541
H     1.7670048   -4.7687404   -1.1927019
C     2.6109872   -3.0144177   -0.3183050
H     3.5525612   -3.4902813   -0.0646367
Bq        -0.9248292410    -3.1469949167    -1.5120060951
Bq        -1.0444145324    -3.2268418701    -1.2487119209
Bq        -0.8849674773    -3.1203792656    -1.5997708198
Bq        -1.0842762962    -3.2534575212    -1.1609471962
Bq        -0.8451057135    -3.0937636145    -1.6875355445
Bq        -1.1241380600    -3.2800731723    -1.0731824715
Bq        -0.8052439497    -3.0671479634    -1.7753002692
Bq        -1.1639998238    -3.3066888234    -0.9854177468
Bq        -0.7653821859    -3.0405323123    -1.8630649939
Bq        -0.9646910048    -3.1736105679    -1.4242413704
Bq        -1.0155592420    -3.1038332362    -1.3122433952
Bq        -0.9358357144    -3.0506019340    -1.4877728446
Bq        -1.0554210058    -3.1304488874    -1.2244786705
Bq        -0.8959739506    -3.0239862829    -1.5755375693
Bq        -1.0952827696    -3.1570645385    -1.1367139458
Bq        -0.8561121868    -2.9973706318    -1.6633022940
Bq        -1.1351445334    -3.1836801896    -1.0489492210
Bq        -0.8162504231    -2.9707549807    -1.7510670187
Bq        -1.1750062971    -3.2102958407    -0.9611844963
Bq        -0.7763886593    -2.9441393296    -1.8388317435
Bq        -0.9756974782    -3.0772175851    -1.4000081199
Bq        -1.0265657154    -3.0074402535    -1.2880101447
Bq        -0.9468421878    -2.9542089513    -1.4635395941
Bq        -1.0664274792    -3.0340559046    -1.2002454200
Bq        -0.9069804240    -2.9275933002    -1.5513043189
Bq        -1.1062892429    -3.0606715558    -1.1124806953
Bq        -0.8671186602    -2.9009776491    -1.6390690436
Bq        -1.1461510067    -3.0872872069    -1.0247159706
Bq        -0.8272568964    -2.8743619980    -1.7268337683
Bq        -1.1860127705    -3.1139028580    -0.9369512459
Bq        -0.7873951326    -2.8477463469    -1.8145984930
Bq        -0.9867039516    -2.9808246024    -1.3757748694
Bq        -1.0375721887    -2.9110472708    -1.2637768943
Bq        -0.9578486612    -2.8578159686    -1.4393063437
Bq        -1.0774339525    -2.9376629219    -1.1760121696
Bq        -0.9179868974    -2.8312003175    -1.5270710684
Bq        -1.1172957163    -2.9642785730    -1.0882474448
Bq        -0.8781251336    -2.8045846664    -1.6148357931
Bq        -1.1571574801    -2.9908942241    -1.0004827201
Bq        -0.8382633698    -2.7779690153    -1.7026005178
Bq        -1.1970192439    -3.0175098753    -0.9127179954
Bq        -0.7984016060    -2.7513533642    -1.7903652425
Bq        -0.9977104250    -2.8844316197    -1.3515416190
Bq        -1.0485786621    -2.8146542881    -1.2395436438
Bq        -0.9688551345    -2.7614229859    -1.4150730932
Bq        -1.0884404259    -2.8412699392    -1.1517789191
Bq        -0.9289933708    -2.7348073348    -1.5028378179
Bq        -1.1283021897    -2.8678855903    -1.0640141944
Bq        -0.8891316070    -2.7081916837    -1.5906025427
Bq        -1.1681639535    -2.8945012414    -0.9762494697
Bq        -0.8492698432    -2.6815760326    -1.6783672674
Bq        -1.2080257173    -2.9211168925    -0.8884847450
Bq        -0.8094080794    -2.6549603815    -1.7661319921
Bq        -1.0087168983    -2.7880386370    -1.3273083685
Bq        -1.0595851355    -2.7182613054    -1.2153103933
Bq        -0.9798616079    -2.6650300032    -1.3908398428
Bq        -1.0994468993    -2.7448769565    -1.1275456686
Bq        -0.9399998441    -2.6384143521    -1.4786045675
Bq        -1.1393086631    -2.7714926076    -1.0397809439
Bq        -0.9001380803    -2.6117987010    -1.5663692922
Bq        -1.1791704268    -2.7981082587    -0.9520162192
Bq        -0.8602763165    -2.5851830499    -1.6541340169
Bq        -1.2190321906    -2.8247239098    -0.8642514945
Bq        -0.8204145528    -2.5585673988    -1.7418987416
Bq        -1.0197233717    -2.6916456543    -1.3030751181
Bq        -1.0705916089    -2.6218683227    -1.1910771429
Bq        -0.9908680813    -2.5686370205    -1.3666065923
Bq        -1.1104533726    -2.6484839738    -1.1033124182
Bq        -0.9510063175    -2.5420213694    -1.4543713170
Bq        -1.1503151364    -2.6750996249    -1.0155476935
Bq        -0.9111445537    -2.5154057183    -1.5421360417
Bq        -1.1901769002    -2.7017152760    -0.9277829688
Bq        -0.8712827899    -2.4887900672    -1.6299007665
Bq        -1.2300386640    -2.7283309271    -0.8400182440
Bq        -0.8314210261    -2.4621744160    -1.7176654912
Bq        -1.0307298451    -2.5952526716    -1.2788418676
Bq        -1.0815980822    -2.5254753400    -1.1668438924
Bq        -1.0018745547    -2.4722440378    -1.3423733419
Bq        -1.1214598460    -2.5520909911    -1.0790791677
Bq        -0.9620127909    -2.4456283867    -1.4301380666
Bq        -1.1613216098    -2.5787066422    -0.9913144430
Bq        -0.9221510271    -2.4190127355    -1.5179027913
Bq        -1.2011833736    -2.6053222933    -0.9035497183
Bq        -0.8822892633    -2.3923970844    -1.6056675160
Bq        -1.2410451374    -2.6319379444    -0.8157849936
Bq        -0.8424274995    -2.3657814333    -1.6934322407
Bq        -1.0417363184    -2.4988596889    -1.2546086171
Bq        -1.0926045556    -2.4290823573    -1.1426106420
Bq        -1.0128810280    -2.3758510550    -1.3181400914
Bq        -1.1324663194    -2.4556980084    -1.0548459173
Bq        -0.9730192642    -2.3492354039    -1.4059048161
Bq        -1.1723280832    -2.4823136595    -0.9670811925
Bq        -0.9331575005    -2.3226197528    -1.4936695408
Bq        -1.2121898470    -2.5089293106    -0.8793164678
Bq        -0.8932957367    -2.2960041017    -1.5814342655
Bq        -1.2520516108    -2.5355449617    -0.7915517431
Bq        -0.8534339729    -2.2693884506    -1.6691989903
Bq        -1.0527427918    -2.4024667062    -1.2303753667
Bq        -1.1036110290    -2.3326893746    -1.1183773915
Bq        -1.0238875014    -2.2794580723    -1.2939068409
Bq        -1.1434727928    -2.3593050257    -1.0306126668
Bq        -0.9840257376    -2.2528424212    -1.3816715657
Bq        -1.1833345565    -2.3859206768    -0.9428479421
Bq        -0.9441639738    -2.2262267701    -1.4694362904
Bq        -1.2231963203    -2.4125363279    -0.8550832174
Bq        -0.9043022100    -2.1996111190    -1.5572010151
Bq        -1.2630580841    -2.4391519790    -0.7673184927
Bq        -0.8644404462    -2.1729954679    -1.6449657398
Bq        -1.0637492652    -2.3060737234    -1.2061421162
Bq        -1.1146175023    -2.2362963918    -1.0941441411
Bq        -1.0348939748    -2.1830650896    -1.2696735905
Bq        -1.1544792661    -2.2629120429    -1.0063794163
Bq        -0.9950322110    -2.1564494385    -1.3574383152
Bq        -1.1943410299    -2.2895276941    -0.9186146916
Bq        -0.9551704472    -2.1298337874    -1.4452030399
Bq        -1.2342027937    -2.3161433452    -0.8308499669
Bq        -0.9153086834    -2.1032181363    -1.5329677646
Bq        -1.2740645575    -2.3427589963    -0.7430852422
Bq        -0.8754469196    -2.0766024852    -1.6207324893
Bq        -1.0747557386    -2.2096807407    -1.1819088658
Bq        -1.1256239757    -2.1399034091    -1.0699108906
Bq        -1.0459004481    -2.0866721069    -1.2454403400
Bq        -1.1654857395    -2.1665190602    -0.9821461659
Bq        -1.0060386844    -2.0600564558    -1.3332050647
Bq        -1.2053475033    -2.1931347113    -0.8943814412
Bq        -0.9661769206    -2.0334408047    -1.4209697895
Bq        -1.2452092671    -2.2197503624    -0.8066167165
Bq        -0.9263151568    -2.0068251536    -1.5087345142
Bq        -1.2850710309    -2.2463660136    -0.7188519917
Bq        -0.8864533930    -1.9802095025    -1.5964992389
Bq        -1.0857622119    -2.1132877580    -1.1576756153
Bq        -1.1366304491    -2.0435104264    -1.0456776401
Bq        -1.0569069215    -1.9902791242    -1.2212070896
Bq        -1.1764922129    -2.0701260775    -0.9579129154
Bq        -1.0170451577    -1.9636634731    -1.3089718143
Bq        -1.2163539767    -2.0967417286    -0.8701481907
Bq        -0.9771833939    -1.9370478220    -1.3967365390
Bq        -1.2562157405    -2.1233573797    -0.7823834660
Bq        -0.9373216302    -1.9104321709    -1.4845012637
Bq        -1.2960775042    -2.1499730308    -0.6946187413
Bq        -0.8974598664    -1.8838165198    -1.5722659884
Bq        -1.0967686853    -2.0168947753    -1.1334423649
Bq        -1.1476369225    -1.9471174437    -1.0214443897
Bq        -1.0679133949    -1.8938861415    -1.1969738391
Bq        -1.1874986862    -1.9737330948    -0.9336796650
Bq        -1.0280516311    -1.8672704904    -1.2847385638
Bq        -1.2273604500    -2.0003487459    -0.8459149403
Bq        -0.9881898673    -1.8406548393    -1.3725032885
Bq        -1.2672222138    -2.0269643970    -0.7581502155
Bq        -0.9483281035    -1.8140391882    -1.4602680132
Bq        -1.3070839776    -2.0535800481    -0.6703854908
Bq        -0.9084663397    -1.7874235371    -1.5480327380
Bq        -1.1077751587    -1.9205017926    -1.1092091144
Bq        -1.1586433958    -1.8507244610    -0.9972111392
Bq        -1.0789198683    -1.7974931588    -1.1727405887
Bq        -1.1985051596    -1.8773401121    -0.9094464145
Bq        -1.0390581045    -1.7708775077    -1.2605053134
Bq        -1.2383669234    -1.9039557632    -0.8216816898
Bq        -0.9991963407    -1.7442618566    -1.3482700381
Bq        -1.2782286872    -1.9305714143    -0.7339169651
Bq        -0.9593345769    -1.7176462055    -1.4360347628
Bq        -1.3180904510    -1.9571870654    -0.6461522404
Bq        -0.9194728131    -1.6910305543    -1.5237994875
Bq        -1.1187816320    -1.8241088099    -1.0849758639
Bq        -1.1696498692    -1.7543314783    -0.9729778888
Bq        -1.0899263416    -1.7011001761    -1.1485073382
Bq        -1.2095116330    -1.7809471294    -0.8852131641
Bq        -1.0500645778    -1.6744845250    -1.2362720629
Bq        -1.2493733968    -1.8075627805    -0.7974484393
Bq        -1.0102028141    -1.6478688739    -1.3240367876
Bq        -1.2892351606    -1.8341784316    -0.7096837146
Bq        -0.9703410503    -1.6212532227    -1.4118015123
Bq        -1.3290969244    -1.8607940827    -0.6219189899
Bq        -0.9304792865    -1.5946375716    -1.4995662370
Bq        -1.1297881054    -1.7277158272    -1.0607426135
Bq        -1.1806563426    -1.6579384956    -0.9487446383
Bq        -1.1009328150    -1.6047071934    -1.1242740877
Bq        -1.2205181064    -1.6845541467    -0.8609799136
Bq        -1.0610710512    -1.5780915422    -1.2120388124
Bq        -1.2603798702    -1.7111697978    -0.7732151889
Bq        -1.0212092874    -1.5514758911    -1.2998035372
Bq        -1.3002416339    -1.7377854489    -0.6854504642
Bq        -0.9813475236    -1.5248602400    -1.3875682619
Bq        -1.3401033977    -1.7644011000    -0.5976857395
Bq        -0.9414857599    -1.4982445889    -1.4753329866
Bq        -1.1407945788    -1.6313228445    -1.0365093630
Bq        -1.1916628160    -1.5615455129    -0.9245113879
Bq        -1.1119392884    -1.5083142106    -1.1000408373
Bq        -1.2315245797    -1.5881611640    -0.8367466631
Bq        -1.0720775246    -1.4816985595    -1.1878055620
Bq        -1.2713863435    -1.6147768151    -0.7489819384
Bq        -1.0322157608    -1.4550829084    -1.2755702867
Bq        -1.3112481073    -1.6413924662    -0.6612172137
Bq        -0.9923539970    -1.4284672573    -1.3633350114
Bq        -1.3511098711    -1.6680081173    -0.5734524890
Bq        -0.9524922332    -1.4018516062    -1.4510997361
Bq        -1.1518010522    -1.5349298617    -1.0122761126
Bq        -1.2026692893    -1.4651525301    -0.9002781374
Bq        -1.1229457617    -1.4119212279    -1.0758075868
Bq        -1.2425310531    -1.4917681812    -0.8125134127

1
2
3
4
5
6
7
8
9
10
11
12
13
14
15
16
17
18
19
20
21
22
23
24
25
26
27
28
29
30
31
32
33
34
35
36
37
38
39
40
41
42
43
44
45
46
47
48
49
50
51
52
53
54
55
56
57
58
59
60
61
62
63
64
65
66
67
68
69
70
71
72
73
74
75
76
77
78
79
80
81
82
83
84
85
86
87
88
89
90
91
92
93
94
95
96
97
98
99
100
101
102
103
104
105
106
107
108
109
110
111
112
113
114
115
116
117
118
119
120
121
122
123
124
125
126
127
128
129
130
131
132
133
134
135
136
137
138
139
140
141
142
143
144
145
146
147
148
149
150
151
152
153
154
155
156
157
158
159
160
161
162
163
164
165
166
167
168
169
170
171
172
173
174
175
176
177
178
179
180
181
182
183
184
185
186
187
188
189
190
191
192
193
194
195
196
197
198
199
200
201
202
203
204
205
206
207
208
209
210
211
212
213
214
215
216
217
218
219
220
221
222
223
224
225
226
227
228
229
230
231
232
233
234
235
236

