%nproc=8
%mem=1000MB
# rb3lyp/6-311+g** NMR geom=connectivity

Title

0 1
C    -4.0500558   -0.5771862    0.8136712
H    -5.0263804   -1.0082727    1.0024760
C    -3.9381552    0.6617804    0.2400876
H    -4.8252424    1.2338890   -0.0111295
C    -2.6768410    1.2433246    0.0057578
C    -1.4974121    0.5051527    0.2848253
C    -1.6508332   -0.7338728    0.9404026
H    -0.7713646   -1.2730967    1.2633753
C    -2.8898548   -1.2624035    1.1994307
H    -2.9683706   -2.2124563    1.7152676
C    -2.5773185    2.5963696   -0.4192930
H    -3.4870728    3.1412239   -0.6474055
C    -1.3741895    3.2147896   -0.4364030
H    -1.2997315    4.2742019   -0.6578144
C    -0.1719488    2.4994090   -0.1734588
C    -0.2043917    1.1018437    0.0192689
C     1.0513491    3.2042560   -0.0676222
H     1.0427344    4.2819499   -0.1896997
C     2.1942091    2.5487446    0.2579577
H     3.1168527    3.0912848    0.4334727
C     2.2216473    1.1336562    0.2934990
C     1.0486931    0.3945528    0.0302412
C     3.4483363    0.4614633    0.5573939
H     4.3095794    1.0606054    0.8334846
C     3.5427346   -0.8855926    0.4749463
H     4.4731467   -1.3939704    0.7038822
C     2.4490052   -1.6474447   -0.0196319
C     1.2150704   -1.0057258   -0.3013573
C     0.2531113   -1.7434440   -1.0216591
H    -0.6541356   -1.2535051   -1.3462847
C     0.4494193   -3.0628597   -1.3413779
H    -0.3083162   -3.5944309   -1.9054060
C     1.6251726   -3.7207967   -0.9552541
H     1.7670048   -4.7687404   -1.1927019
C     2.6109872   -3.0144177   -0.3183050
H     3.5525612   -3.4902813   -0.0646367
Bq         3.9547323063     2.1025642787     1.7996345175
Bq         4.1088054922     2.1879302328     1.2260718729
Bq         3.9290534420     2.0883366196     1.8952282916
Bq         4.1344843566     2.2021578919     1.1304780988
Bq         3.9033745777     2.0741089606     1.9908220657
Bq         4.1601632209     2.2163855509     1.0348843248
Bq         4.0317688993     2.1452472558     1.5128531952
Bq         4.2872188118    -2.8181151051     0.9473627732
Bq         4.3385765404    -2.7896597870     0.7561752250
Bq         4.2615399474    -2.8323427641     1.0429565473
Bq         4.3642554047    -2.7754321280     0.6605814509
Bq         4.2358610831    -2.8465704231     1.1385503214
Bq         4.3899342690    -2.7612044690     0.5649876768
Bq         4.2101822188    -2.8607980821     1.2341440954
Bq         4.4156131334    -2.7469768099     0.4693939027
Bq         4.1845033545    -2.8750257412     1.3297378695
Bq         4.4412919977    -2.7327491509     0.3738001286
Bq         4.3128976761    -2.8038874460     0.8517689991
Bq         4.2835277612    -2.7191324110     0.9611033127
Bq         4.3348854899    -2.6906770930     0.7699157645
Bq         4.2578488969    -2.7333600701     1.0566970868
Bq         4.3605643542    -2.6764494339     0.6743219904
Bq         4.2321700326    -2.7475877291     1.1522908609
Bq         4.3862432185    -2.6622217749     0.5787282163
Bq         4.2064911683    -2.7618153881     1.2478846350
Bq         4.4119220828    -2.6479941159     0.4831344423
Bq         4.1808123039    -2.7760430471     1.3434784091
Bq         4.4376009472    -2.6337664569     0.3875406682
Bq         4.3092066255    -2.7049047520     0.8655095386
Bq         4.2798367107    -2.6201497170     0.9748438523
Bq         4.3311944393    -2.5916943989     0.7836563041
Bq         4.2541578464    -2.6343773760     1.0704376264
Bq         4.3568733037    -2.5774667399     0.6880625300
Bq         4.2284789820    -2.6486050350     1.1660314005
Bq         4.3825521680    -2.5632390809     0.5924687559
Bq         4.2028001177    -2.6628326941     1.2616251746
Bq         4.4082310323    -2.5490114219     0.4968749818
Bq         4.1771212534    -2.6770603531     1.3572189487
Bq         4.4339098966    -2.5347837628     0.4012812077
Bq         4.3055155750    -2.6059220580     0.8792500782
Bq         4.2761456602    -2.5211670230     0.9885843918
Bq         4.3275033888    -2.4927117049     0.7973968437
Bq         4.2504667958    -2.5353946820     1.0841781659
Bq         4.3531822531    -2.4784840459     0.7018030696
Bq         4.2247879315    -2.5496223410     1.1797719400
Bq         4.3788611174    -2.4642563868     0.6062092955
Bq         4.1991090672    -2.5638500000     1.2753657141
Bq         4.4045399818    -2.4500287278     0.5106155214
Bq         4.1734302029    -2.5780776591     1.3709594882
Bq         4.4302188461    -2.4358010688     0.4150217473
Bq         4.3018245245    -2.5069393639     0.8929906177
Bq         4.2724546096    -2.4221843289     1.0023249314
Bq         4.3238123383    -2.3937290109     0.8111373832
Bq         4.2467757453    -2.4364119879     1.0979187055
Bq         4.3494912026    -2.3795013518     0.7155436091
Bq         4.2210968810    -2.4506396470     1.1935124796
Bq         4.3751700669    -2.3652736928     0.6199498350
Bq         4.1954180167    -2.4648673060     1.2891062537
Bq         4.4008489312    -2.3510460338     0.5243560609
Bq         4.1697391523    -2.4790949650     1.3847000278
Bq         4.4265277956    -2.3368183748     0.4287622868
Bq         4.2981334739    -2.4079566699     0.9067311573
Bq         4.2687635591    -2.3232016349     1.0160654710
Bq         4.3201212877    -2.2947463168     0.8248779228
Bq         4.2430846948    -2.3374292939     1.1116592451
Bq         4.3458001521    -2.2805186578     0.7292841487
Bq         4.2174058304    -2.3516569529     1.2072530191
Bq         4.3714790164    -2.2662909988     0.6336903746
Bq         4.1917269661    -2.3658846120     1.3028467932
Bq         4.3971578807    -2.2520633397     0.5380966005
Bq         4.1660481018    -2.3801122710     1.3984405673
Bq         4.4228367450    -2.2378356807     0.4425028264
Bq         4.2944424234    -2.3089739759     0.9204716969
Bq         4.2650725085    -2.2242189408     1.0298060105
Bq         4.3164302372    -2.1957636228     0.8386184623
Bq         4.2393936442    -2.2384465999     1.1253997846
Bq         4.3421091015    -2.1815359638     0.7430246882
Bq         4.2137147799    -2.2526742589     1.2209935587
Bq         4.3677879658    -2.1673083047     0.6474309141
Bq         4.1880359156    -2.2669019179     1.3165873328
Bq         4.3934668302    -2.1530806457     0.5518371400
Bq         4.1623570513    -2.2811295770     1.4121811069
Bq         4.4191456945    -2.1388529867     0.4562433659
Bq         4.2907513729    -2.2099912818     0.9342122364
Bq         4.2613814580    -2.1252362468     1.0435465501
Bq         4.3127391867    -2.0967809288     0.8523590019
Bq         4.2357025937    -2.1394639058     1.1391403242
Bq         4.3384180510    -2.0825532697     0.7567652278
Bq         4.2100237294    -2.1536915649     1.2347340983
Bq         4.3640969153    -2.0683256107     0.6611714537
Bq         4.1843448650    -2.1679192239     1.3303278724
Bq         4.3897757796    -2.0540979517     0.5655776796
Bq         4.1586660007    -2.1821468829     1.4259216465
Bq         4.4154546439    -2.0398702926     0.4699839055
Bq         4.2870603223    -2.1110085878     0.9479527760
Bq         4.2576904075    -2.0262535528     1.0572870896
Bq         4.3090481361    -1.9977982347     0.8660995414
Bq         4.2320115432    -2.0404812118     1.1528808637
Bq         4.3347270004    -1.9835705757     0.7705057674
Bq         4.2063326788    -2.0547088708     1.2484746378
Bq         4.3604058648    -1.9693429167     0.6749119933
Bq         4.1806538145    -2.0689365299     1.3440684119
Bq         4.3860847291    -1.9551152576     0.5793182192
Bq         4.1549749502    -2.0831641889     1.4396621860
Bq         4.4117635934    -1.9408875986     0.4837244451
Bq         4.2833692718    -2.0120258937     0.9616933155
Bq         4.2539993569    -1.9272708587     1.0710276292
Bq         4.3053570856    -1.8988155407     0.8798400810
Bq         4.2283204926    -1.9414985178     1.1666214033
Bq         4.3310359499    -1.8845878817     0.7842463069
Bq         4.2026416283    -1.9557261768     1.2622151774
Bq         4.3567148142    -1.8703602226     0.6886525328
Bq         4.1769627640    -1.9699538358     1.3578089515
Bq         4.3823936786    -1.8561325636     0.5930587587
Bq         4.1512838997    -1.9841814949     1.4534027256
Bq         4.4080725429    -1.8419049046     0.4974649846
Bq         4.2796782213    -1.9130431997     0.9754338551
Bq         4.2503083064    -1.8282881647     1.0847681688
Bq         4.3016660351    -1.7998328466     0.8935806206
Bq         4.2246294421    -1.8425158237     1.1803619428
Bq         4.3273448994    -1.7856051876     0.7979868465
Bq         4.1989505778    -1.8567434828     1.2759557169
Bq         4.3530237637    -1.7713775286     0.7023930724
Bq         4.1732717134    -1.8709711418     1.3715494910
Bq         4.3787026280    -1.7571498696     0.6067992983
Bq         4.1475928491    -1.8851988008     1.4671432651
Bq         4.4043814923    -1.7429222105     0.5112055242
Bq         4.2759871707    -1.8140605057     0.9891743947
Bq         4.2466172559    -1.7293054707     1.0985087083
Bq         4.2979749845    -1.7008501526     0.9073211601
Bq         4.2209383915    -1.7435331297     1.1941024824
Bq         4.3236538488    -1.6866224936     0.8117273860
Bq         4.1952595272    -1.7577607887     1.2896962565
Bq         4.3493327132    -1.6723948346     0.7161336119
Bq         4.1695806629    -1.7719884478     1.3852900306
Bq         4.3750115775    -1.6581671755     0.6205398378
Bq         4.1439017986    -1.7862161068     1.4808838047
Bq         4.4006904418    -1.6439395165     0.5249460637
Bq         4.2722961202    -1.7150778116     1.0029149342
Bq         4.2429262053    -1.6303227766     1.1122492479
Bq         4.2942839340    -1.6018674586     0.9210616997
Bq         4.2172473410    -1.6445504357     1.2078430220
Bq         4.3199627983    -1.5876397995     0.8254679256
Bq         4.1915684767    -1.6587780947     1.3034367961
Bq         4.3456416626    -1.5734121405     0.7298741515
Bq         4.1658896124    -1.6730057537     1.3990305702
Bq         4.3713205269    -1.5591844815     0.6342803774
Bq         4.1402107480    -1.6872334127     1.4946243443
Bq         4.3969993913    -1.5449568225     0.5386866033
Bq         4.2686050697    -1.6160951176     1.0166554738
Bq         4.2392351548    -1.5313400826     1.1259897874
Bq         4.2905928834    -1.5028847645     0.9348022392
Bq         4.2135562905    -1.5455677416     1.2215835615
Bq         4.3162717478    -1.4886571055     0.8392084651
Bq         4.1878774262    -1.5597954007     1.3171773356
Bq         4.3419506121    -1.4744294465     0.7436146911
Bq         4.1621985618    -1.5740230597     1.4127711097
Bq         4.3676294764    -1.4602017875     0.6480209170
Bq         4.1365196975    -1.5882507187     1.5083648838
Bq         4.3933083407    -1.4459741284     0.5524271429
Bq         4.2649140191    -1.5171124236     1.0303960133
Bq         4.2355441043    -1.4323573886     1.1397303270
Bq         4.2869018329    -1.4039020705     0.9485427788
Bq         4.2098652399    -1.4465850476     1.2353241011
Bq         4.3125806972    -1.3896744115     0.8529490047
Bq         4.1841863756    -1.4608127066     1.3309178752
Bq         4.3382595616    -1.3754467524     0.7573552306
Bq         4.1585075113    -1.4750403656     1.4265116493
Bq         4.3639384259    -1.3612190934     0.6617614565
Bq         4.1328286470    -1.4892680247     1.5221054234
Bq         4.3896172902    -1.3469914344     0.5661676824
Bq         4.2612229686    -1.4181297295     1.0441365529
Bq         4.2318530537    -1.3333746945     1.1534708665
Bq         4.2832107824    -1.3049193765     0.9622833184
Bq         4.2061741894    -1.3476023536     1.2490646406
Bq         4.3088896467    -1.2906917174     0.8666895443
Bq         4.1804953251    -1.3618300126     1.3446584147
Bq         4.3345685110    -1.2764640584     0.7710957702
Bq         4.1548164608    -1.3760576716     1.4402521888
Bq         4.3602473753    -1.2622363994     0.6755019961
Bq         4.1291375964    -1.3902853306     1.5358459629
Bq         4.3859262397    -1.2480087404     0.5799082220
Bq         4.2575319181    -1.3191470355     1.0578770925
Bq         4.2281620032    -1.2343920005     1.1672114061
Bq         4.2795197318    -1.2059366824     0.9760238579
Bq         4.2024831389    -1.2486196595     1.2628051802
Bq         4.3051985962    -1.1917090234     0.8804300838
Bq         4.1768042745    -1.2628473185     1.3583989543
Bq         4.3308774605    -1.1774813644     0.7848363097
Bq         4.1511254102    -1.2770749776     1.4539927284
Bq         4.3565563248    -1.1632537054     0.6892425356
Bq         4.1254465459    -1.2913026366     1.5495865025
Bq         4.3822351891    -1.1490260463     0.5936487615
Bq         4.2538408675    -1.2201643415     1.0716176320
Bq         4.2244709527    -1.1354093065     1.1809519457
Bq         4.2758286813    -1.1069539884     0.9897643975
Bq         4.1987920883    -1.1496369655     1.2765457198
Bq         4.3015075456    -1.0927263294     0.8941706234
Bq         4.1731132240    -1.1638646245     1.3721394939
Bq         4.3271864099    -1.0784986703     0.7985768493

1
2
3
4
5
6
7
8
9
10
11
12
13
14
15
16
17
18
19
20
21
22
23
24
25
26
27
28
29
30
31
32
33
34
35
36
37
38
39
40
41
42
43
44
45
46
47
48
49
50
51
52
53
54
55
56
57
58
59
60
61
62
63
64
65
66
67
68
69
70
71
72
73
74
75
76
77
78
79
80
81
82
83
84
85
86
87
88
89
90
91
92
93
94
95
96
97
98
99
100
101
102
103
104
105
106
107
108
109
110
111
112
113
114
115
116
117
118
119
120
121
122
123
124
125
126
127
128
129
130
131
132
133
134
135
136
137
138
139
140
141
142
143
144
145
146
147
148
149
150
151
152
153
154
155
156
157
158
159
160
161
162
163
164
165
166
167
168
169
170
171
172
173
174
175
176
177
178
179
180
181
182
183
184
185
186
187
188
189
190
191
192
193
194
195
196
197
198
199
200
201
202
203
204
205
206
207
208
209
210
211
212
213
214
215
216
217
218
219
220
221
222
223
224
225
226
227
228
229
230
231
232
233
234
235
236

