%nproc=8
%mem=1000MB
# rb3lyp/6-311+g** NMR geom=connectivity

Title

0 1
C    -4.0500558   -0.5771862    0.8136712
H    -5.0263804   -1.0082727    1.0024760
C    -3.9381552    0.6617804    0.2400876
H    -4.8252424    1.2338890   -0.0111295
C    -2.6768410    1.2433246    0.0057578
C    -1.4974121    0.5051527    0.2848253
C    -1.6508332   -0.7338728    0.9404026
H    -0.7713646   -1.2730967    1.2633753
C    -2.8898548   -1.2624035    1.1994307
H    -2.9683706   -2.2124563    1.7152676
C    -2.5773185    2.5963696   -0.4192930
H    -3.4870728    3.1412239   -0.6474055
C    -1.3741895    3.2147896   -0.4364030
H    -1.2997315    4.2742019   -0.6578144
C    -0.1719488    2.4994090   -0.1734588
C    -0.2043917    1.1018437    0.0192689
C     1.0513491    3.2042560   -0.0676222
H     1.0427344    4.2819499   -0.1896997
C     2.1942091    2.5487446    0.2579577
H     3.1168527    3.0912848    0.4334727
C     2.2216473    1.1336562    0.2934990
C     1.0486931    0.3945528    0.0302412
C     3.4483363    0.4614633    0.5573939
H     4.3095794    1.0606054    0.8334846
C     3.5427346   -0.8855926    0.4749463
H     4.4731467   -1.3939704    0.7038822
C     2.4490052   -1.6474447   -0.0196319
C     1.2150704   -1.0057258   -0.3013573
C     0.2531113   -1.7434440   -1.0216591
H    -0.6541356   -1.2535051   -1.3462847
C     0.4494193   -3.0628597   -1.3413779
H    -0.3083162   -3.5944309   -1.9054060
C     1.6251726   -3.7207967   -0.9552541
H     1.7670048   -4.7687404   -1.1927019
C     2.6109872   -3.0144177   -0.3183050
H     3.5525612   -3.4902813   -0.0646367
Bq        -3.4057160277     2.8295465194    -0.4444493716
Bq        -3.4249259344     2.9522931063     0.0398689689
Bq        -3.4277949615     3.0737822556     0.1122026076
Bq        -3.4201109988     3.0246836208    -0.0815247286
Bq        -3.4316369428     3.0983315730     0.2090662757
Bq        -3.4162690175     3.0001343035    -0.1783883967
Bq        -3.4354789242     3.1228808903     0.3059299437
Bq        -3.4124270362     2.9755849861    -0.2752520648
Bq        -3.4393209055     3.1474302077     0.4027936118
Bq        -3.4085850549     2.9510356687    -0.3721157329
Bq        -3.4431628868     3.1719795251     0.4996572799
Bq        -3.4047430735     2.9264863513    -0.4689794010
Bq        -3.4239529802     3.0492329382     0.0153389395
Bq        -3.4268220073     3.1707220875     0.0876725781
Bq        -3.4191380446     3.1216234528    -0.1060547580
Bq        -3.4306639886     3.1952714049     0.1845362462
Bq        -3.4152960633     3.0970741354    -0.2029184261
Bq        -3.4345059699     3.2198207223     0.2813999143
Bq        -3.4114540820     3.0725248180    -0.2997820942
Bq        -3.4383479513     3.2443700397     0.3782635824
Bq        -3.4076121006     3.0479755006    -0.3966457623
Bq        -3.4421899326     3.2689193570     0.4751272505
Bq        -3.4037701193     3.0234261833    -0.4935094304
Bq        -3.4229800259     3.1461727701    -0.0091910900
Bq        -3.4258490530     3.2676619195     0.0631425487
Bq        -3.4181650904     3.2185632847    -0.1305847875
Bq        -3.4296910344     3.2922112368     0.1600062168
Bq        -3.4143231091     3.1940139673    -0.2274484556
Bq        -3.4335330157     3.3167605542     0.2568698849
Bq        -3.4104811277     3.1694646500    -0.3243121237
Bq        -3.4373749970     3.3413098716     0.3537335530
Bq        -3.4066391464     3.1449153326    -0.4211757917
Bq        -3.4412169784     3.3658591890     0.4505972211
Bq        -3.4027971651     3.1203660152    -0.5180394598
Bq        -3.4220070717     3.2431126021    -0.0337211194
Bq        -3.4248760988     3.3646017514     0.0386125193
Bq        -3.4171921362     3.3155031167    -0.1551148169
Bq        -3.4287180802     3.3891510688     0.1354761874
Bq        -3.4133501548     3.2909537993    -0.2519784850
Bq        -3.4325600615     3.4137003862     0.2323398555
Bq        -3.4095081735     3.2664044819    -0.3488421531
Bq        -3.4364020428     3.4382497035     0.3292035235
Bq        -3.4056661922     3.2418551645    -0.4457058212
Bq        -3.4402440241     3.4627990209     0.4260671916
Bq        -3.4018242108     3.2173058471    -0.5425694893
Bq        -3.4210341175     3.3400524340    -0.0582511488
Bq        -3.4239031446     3.4615415833     0.0140824899
Bq        -3.4162191819     3.4124429486    -0.1796448463
Bq        -3.4277451259     3.4860909007     0.1109461579
Bq        -3.4123772006     3.3878936312    -0.2765085144
Bq        -3.4315871073     3.5106402181     0.2078098260
Bq        -3.4085352193     3.3633443138    -0.3733721825
Bq        -3.4354290886     3.5351895355     0.3046734941
Bq        -3.4046932380     3.3387949965    -0.4702358506
Bq        -3.4392710699     3.5597388528     0.4015371622
Bq        -3.4008512566     3.3142456791    -0.5670995187
Bq        -3.4200611633     3.4369922660    -0.0827811782
Bq        -3.4229301904     3.5584814153    -0.0104475396
Bq        -3.4152462277     3.5093827805    -0.2041748758
Bq        -3.4267721717     3.5830307327     0.0864161285
Bq        -3.4114042464     3.4848334632    -0.3010385438
Bq        -3.4306141530     3.6075800500     0.1832797966
Bq        -3.4075622651     3.4602841458    -0.3979022119
Bq        -3.4344561344     3.6321293674     0.2801434647
Bq        -3.4037202837     3.4357348284    -0.4947658800
Bq        -3.4382981157     3.6566786848     0.3770071328
Bq        -3.3998783024     3.4111855110    -0.5916295481
Bq        -3.4190882090     3.5339320979    -0.1073112077
Bq        -3.4219572362     3.6554212472    -0.0349775690
Bq        -3.4142732735     3.6063226125    -0.2287049052
Bq        -3.4257992175     3.6799705646     0.0618860991
Bq        -3.4104312922     3.5817732951    -0.3255685733
Bq        -3.4296411988     3.7045198820     0.1587497672
Bq        -3.4065893108     3.5572239777    -0.4224322414
Bq        -3.4334831801     3.7290691993     0.2556134353
Bq        -3.4027473295     3.5326746603    -0.5192959095
Bq        -3.4373251615     3.7536185167     0.3524771034
Bq        -3.3989053482     3.5081253430    -0.6161595775
Bq        -3.4181152548     3.6308719298    -0.1318412371
Bq        -3.4209842819     3.7523610792    -0.0595075984
Bq        -3.4133003193     3.7032624444    -0.2532349346
Bq        -3.4248262633     3.7769103965     0.0373560697
Bq        -3.4094583379     3.6787131270    -0.3500986027
Bq        -3.4286682446     3.8014597139     0.1342197378
Bq        -3.4056163566     3.6541638097    -0.4469622708
Bq        -3.4325102259     3.8260090313     0.2310834058
Bq        -3.4017743753     3.6296144923    -0.5438259389
Bq        -3.4363522072     3.8505583487     0.3279470739
Bq        -3.3979323940     3.6050651749    -0.6406896070
Bq        -3.4171423006     3.7278117618    -0.1563712665
Bq        -3.4200113277     3.8493009111    -0.0840376279
Bq        -3.4123273650     3.8002022763    -0.2777649640
Bq        -3.4238533090     3.8738502285     0.0128260402
Bq        -3.4084853837     3.7756529590    -0.3746286321
Bq        -3.4276952904     3.8983995458     0.1096897083
Bq        -3.4046434024     3.7511036416    -0.4714923002
Bq        -3.4315372717     3.9229488632     0.2065533764
Bq        -3.4008014211     3.7265543242    -0.5683559683
Bq        -3.4353792530     3.9474981806     0.3034170445
Bq        -3.3969594397     3.7020050068    -0.6652196364
Bq        -3.4161693464     3.8247515937    -0.1809012959
Bq        -3.4190383735     3.9462407430    -0.1085676573
Bq        -3.4113544108     3.8971421083    -0.3022949935
Bq        -3.4228803548     3.9707900604    -0.0117039892
Bq        -3.4075124295     3.8725927909    -0.3991586616
Bq        -3.4267223361     3.9953393778     0.0851596789
Bq        -3.4036704482     3.8480434735    -0.4960223296
Bq        -3.4305643175     4.0198886952     0.1820233470
Bq        -3.3998284668     3.8234941562    -0.5928859977
Bq        -3.4344062988     4.0444380125     0.2788870151
Bq        -3.3959864855     3.7989448388    -0.6897496658
Bq        -3.4151963921     3.9216914257    -0.2054313254
Bq        -3.4180654193     4.0431805750    -0.1330976867
Bq        -3.4103814566     3.9940819402    -0.3268250229
Bq        -3.4219074006     4.0677298924    -0.0362340186
Bq        -3.4065394753     3.9695326228    -0.4236886910
Bq        -3.4257493819     4.0922792097     0.0606296495
Bq        -3.4026974939     3.9449833055    -0.5205523591
Bq        -3.4295913632     4.1168285271     0.1574933176
Bq        -3.3988555126     3.9204339881    -0.6174160272
Bq        -3.4334333446     4.1413778445     0.2543569856
Bq        -3.3950135313     3.8958846707    -0.7142796953
Bq        -3.4142234379     4.0186312576    -0.2299613548
Bq        -3.4170924650     4.1401204069    -0.1576277161
Bq        -3.4094085024     4.0910217722    -0.3513550523
Bq        -3.4209344464     4.1646697243    -0.0607640480
Bq        -3.4055665210     4.0664724548    -0.4482187204
Bq        -3.4247764277     4.1892190417     0.0360996200
Bq        -3.4017245397     4.0419231374    -0.5450823885
Bq        -3.4286184090     4.2137683590     0.1329632881
Bq        -3.3978825584     4.0173738200    -0.6419460566
Bq        -3.4324603903     4.2383176764     0.2298269562
Bq        -3.3940405771     3.9928245027    -0.7388097247
Bq        -3.4132504837     4.1155710895    -0.2544913842
Bq        -3.4161195108     4.2370602389    -0.1821577456
Bq        -3.4084355481     4.1879616041    -0.3758850817
Bq        -3.4199614921     4.2616095562    -0.0852940775
Bq        -3.4045935668     4.1634122867    -0.4727487498
Bq        -3.4238034735     4.2861588736     0.0115695906
Bq        -3.4007515855     4.1388629694    -0.5696124179
Bq        -3.4276454548     4.3107081910     0.1084332587
Bq        -3.3969096042     4.1143136520    -0.6664760860
Bq        -3.4314874361     4.3352575084     0.2052969268
Bq        -3.3930676228     4.0897643346    -0.7633397541
Bq        -3.4122775295     4.2125109215    -0.2790214137
Bq        -3.4151465566     4.3340000708    -0.2066877750
Bq        -3.4074625939     4.2849014360    -0.4004151112
Bq        -3.4189885379     4.3585493882    -0.1098241069
Bq        -3.4036206126     4.2603521187    -0.4972787793
Bq        -3.4228305192     4.3830987055    -0.0129604388
Bq        -3.3997786313     4.2358028013    -0.5941424474
Bq        -3.4266725006     4.4076480229     0.0839032293
Bq        -3.3959366499     4.2112534839    -0.6910061154
Bq        -3.4305144819     4.4321973403     0.1807668974
Bq        -3.3920946686     4.1867041665    -0.7878697835
Bq        -3.4113045753     4.3094507534    -0.3035514431
Bq        -3.4141736024     4.4309399027    -0.2312178044
Bq        -3.4064896397     4.3818412680    -0.4249451406
Bq        -3.4180155837     4.4554892201    -0.1343541363
Bq        -3.4026476584     4.3572919506    -0.5218088087
Bq        -3.4218575650     4.4800385375    -0.0374904682
Bq        -3.3988056770     4.3327426332    -0.6186724768
Bq        -3.4256995463     4.5045878549     0.0593731999
Bq        -3.3949636957     4.3081933159    -0.7155361449
Bq        -3.4295415277     4.5291371722     0.1562368679
Bq        -3.3911217144     4.2836439985    -0.8123998130
Bq        -3.4103316210     4.4063905854    -0.3280814725
Bq        -3.3628998817    -0.4160516942     0.9992469308
Bq        -3.3552159191    -0.4651503290     0.8055195946
Bq        -3.3667418631    -0.3915023768     1.0961105989
Bq        -3.3513739378    -0.4896996464     0.7086559265
Bq        -3.3705838444    -0.3669530595     1.1929742670
Bq        -3.3475319564    -0.5142489637     0.6117922584
Bq        -3.3744258257    -0.3424037421     1.2898379351
Bq        -3.3436899751    -0.5387982811     0.5149285904
Bq        -3.3782678071    -0.3178544247     1.3867016032
Bq        -3.3398479938    -0.5633475985     0.4180649223
Bq        -3.3590579004    -0.4406010116     0.9023832627
Bq        -3.3619269275    -0.3191118623     0.9747169014
Bq        -3.3542429649    -0.3682104970     0.7809895652
Bq        -3.3657689088    -0.2945625449     1.0715805695
Bq        -3.3504009835    -0.3927598144     0.6841258971
Bq        -3.3696108902    -0.2700132275     1.1684442376
Bq        -3.3465590022    -0.4173091318     0.5872622290
Bq        -3.3734528715    -0.2454639102     1.2653079056
Bq        -3.3427170209    -0.4418584492     0.4903985609
Bq        -3.3772948528    -0.2209145928     1.3621715737
Bq        -3.3388750395    -0.4664077665     0.3935348928
Bq        -3.3580849462    -0.3436611797     0.8778532333
Bq        -3.3609539733    -0.2221720303     0.9501868719
Bq        -3.3532700106    -0.2712706651     0.7564595358
Bq        -3.3647959546    -0.1976227130     1.0470505400
Bq        -3.3494280293    -0.2958199825     0.6595958677
Bq        -3.3686379360    -0.1730733956     1.1439142081
Bq        -3.3455860480    -0.3203692998     0.5627321996
Bq        -3.3724799173    -0.1485240782     1.2407778762
Bq        -3.3417440667    -0.3449186172     0.4658685315
Bq        -3.3763218986    -0.1239747608     1.3376415443
Bq        -3.3379020853    -0.3694679346     0.3690048634
Bq        -3.3571119920    -0.2467213477     0.8533232039

1
2
3
4
5
6
7
8
9
10
11
12
13
14
15
16
17
18
19
20
21
22
23
24
25
26
27
28
29
30
31
32
33
34
35
36
37
38
39
40
41
42
43
44
45
46
47
48
49
50
51
52
53
54
55
56
57
58
59
60
61
62
63
64
65
66
67
68
69
70
71
72
73
74
75
76
77
78
79
80
81
82
83
84
85
86
87
88
89
90
91
92
93
94
95
96
97
98
99
100
101
102
103
104
105
106
107
108
109
110
111
112
113
114
115
116
117
118
119
120
121
122
123
124
125
126
127
128
129
130
131
132
133
134
135
136
137
138
139
140
141
142
143
144
145
146
147
148
149
150
151
152
153
154
155
156
157
158
159
160
161
162
163
164
165
166
167
168
169
170
171
172
173
174
175
176
177
178
179
180
181
182
183
184
185
186
187
188
189
190
191
192
193
194
195
196
197
198
199
200
201
202
203
204
205
206
207
208
209
210
211
212
213
214
215
216
217
218
219
220
221
222
223
224
225
226
227
228
229
230
231
232
233
234
235
236

