%nproc=8
%mem=1000MB
# rb3lyp/6-311+g** NMR geom=connectivity

Title

0 1
C    -4.0500558   -0.5771862    0.8136712
H    -5.0263804   -1.0082727    1.0024760
C    -3.9381552    0.6617804    0.2400876
H    -4.8252424    1.2338890   -0.0111295
C    -2.6768410    1.2433246    0.0057578
C    -1.4974121    0.5051527    0.2848253
C    -1.6508332   -0.7338728    0.9404026
H    -0.7713646   -1.2730967    1.2633753
C    -2.8898548   -1.2624035    1.1994307
H    -2.9683706   -2.2124563    1.7152676
C    -2.5773185    2.5963696   -0.4192930
H    -3.4870728    3.1412239   -0.6474055
C    -1.3741895    3.2147896   -0.4364030
H    -1.2997315    4.2742019   -0.6578144
C    -0.1719488    2.4994090   -0.1734588
C    -0.2043917    1.1018437    0.0192689
C     1.0513491    3.2042560   -0.0676222
H     1.0427344    4.2819499   -0.1896997
C     2.1942091    2.5487446    0.2579577
H     3.1168527    3.0912848    0.4334727
C     2.2216473    1.1336562    0.2934990
C     1.0486931    0.3945528    0.0302412
C     3.4483363    0.4614633    0.5573939
H     4.3095794    1.0606054    0.8334846
C     3.5427346   -0.8855926    0.4749463
H     4.4731467   -1.3939704    0.7038822
C     2.4490052   -1.6474447   -0.0196319
C     1.2150704   -1.0057258   -0.3013573
C     0.2531113   -1.7434440   -1.0216591
H    -0.6541356   -1.2535051   -1.3462847
C     0.4494193   -3.0628597   -1.3413779
H    -0.3083162   -3.5944309   -1.9054060
C     1.6251726   -3.7207967   -0.9552541
H     1.7670048   -4.7687404   -1.1927019
C     2.6109872   -3.0144177   -0.3183050
H     3.5525612   -3.4902813   -0.0646367
Bq         0.7396667132    -0.2467213477     1.0158170223
Bq         0.7367976861    -0.1252321984     1.0881506609
Bq         0.7444816487    -0.1743308332     0.8944233248
Bq         0.7329557047    -0.1006828810     1.1850143290
Bq         0.7483236301    -0.1988801505     0.7975596567
Bq         0.7291137234    -0.0761335637     1.2818779971
Bq         0.7521656114    -0.2234294679     0.7006959886
Bq         0.7252717421    -0.0515842463     1.3787416652
Bq         0.7560075927    -0.2479787853     0.6038323205
Bq         0.7214297608    -0.0270349289     1.4756053333
Bq         0.7598495741    -0.2725281027     0.5069686524
Bq         0.7406396674    -0.1497815158     0.9912869929
Bq         0.7377706403    -0.0282923665     1.0636206315
Bq         0.7454546030    -0.0773910012     0.8698932953
Bq         0.7339286590    -0.0037430491     1.1604842996
Bq         0.7492965843    -0.1019403186     0.7730296272
Bq         0.7300866776     0.0208062683     1.2573479677
Bq         0.7531385656    -0.1264896360     0.6761659592
Bq         0.7262446963     0.0453555857     1.3542116358
Bq         0.7569805469    -0.1510389533     0.5793022911
Bq         0.7224027150     0.0699049030     1.4510753039
Bq         0.7608225283    -0.1755882707     0.4824386230
Bq         0.7416126216    -0.0528416838     0.9667569634
Bq         0.7387435945     0.0686474655     1.0390906021
Bq         0.7464275572     0.0195488307     0.8453632659
Bq         0.7349016132     0.0931967828     1.1359542702
Bq         0.7502695385    -0.0050004867     0.7484995978
Bq         0.7310596319     0.1177461002     1.2328179383
Bq         0.7541115198    -0.0295498040     0.6516359297
Bq         0.7272176505     0.1422954176     1.3296816064
Bq         0.7579535012    -0.0540991214     0.5547722616
Bq         0.7233756692     0.1668447350     1.4265452745
Bq         0.7617954825    -0.0786484388     0.4579085936
Bq         0.7425855759     0.0440981481     0.9422269340
Bq         0.7397165488     0.1655872974     1.0145605727
Bq         0.7474005114     0.1164886627     0.8208332365
Bq         0.7358745674     0.1901366148     1.1114242408
Bq         0.7512424927     0.0919393453     0.7239695684
Bq         0.7320325861     0.2146859322     1.2082879088
Bq         0.7550844741     0.0673900279     0.6271059003
Bq         0.7281906048     0.2392352495     1.3051515769
Bq         0.7589264554     0.0428407105     0.5302422322
Bq         0.7243486234     0.2637845669     1.4020152450
Bq         0.7627684367     0.0182913932     0.4333785641
Bq         0.7435585301     0.1410379800     0.9176969046
Bq         0.7406895030     0.2625271294     0.9900305432
Bq         0.7483734656     0.2134284946     0.7963032071
Bq         0.7368475216     0.2870764467     1.0868942113
Bq         0.7522154470     0.1888791772     0.6994395390
Bq         0.7330055403     0.3116257641     1.1837578794
Bq         0.7560574283     0.1643298598     0.6025758709
Bq         0.7291635590     0.3361750815     1.2806215475
Bq         0.7598994096     0.1397805425     0.5057122028
Bq         0.7253215777     0.3607243989     1.3774852156
Bq         0.7637413910     0.1152312251     0.4088485347
Bq         0.7445314843     0.2379778120     0.8931668751
Bq         0.7416624572     0.3594669613     0.9655005138
Bq         0.7493464199     0.3103683265     0.7717731776
Bq         0.7378204759     0.3840162787     1.0623641819
Bq         0.7531884012     0.2858190092     0.6749095095
Bq         0.7339784945     0.4085655960     1.1592278500
Bq         0.7570303825     0.2612696918     0.5780458415
Bq         0.7301365132     0.4331149134     1.2560915181
Bq         0.7608723638     0.2367203744     0.4811821734
Bq         0.7262945319     0.4576642308     1.3529551862
Bq         0.7647143452     0.2121710570     0.3843185053
Bq         0.7455044385     0.3349176439     0.8686368457
Bq         0.7426354114     0.4564067932     0.9409704844
Bq         0.7503193741     0.4073081585     0.7472431482
Bq         0.7387934301     0.4809561106     1.0378341525
Bq         0.7541613554     0.3827588411     0.6503794801
Bq         0.7349514488     0.5055054280     1.1346978206
Bq         0.7580033367     0.3582095237     0.5535158120
Bq         0.7311094674     0.5300547454     1.2315614887
Bq         0.7618453181     0.3336602064     0.4566521439
Bq         0.7272674861     0.5546040627     1.3284251567
Bq         0.7656872994     0.3091108890     0.3597884758
Bq         0.7464773928     0.4318574759     0.8441068163
Bq         0.7436083656     0.5533466252     0.9164404550
Bq         0.7512923283     0.5042479904     0.7227131188
Bq         0.7397663843     0.5778959425     1.0133041230
Bq         0.7551343096     0.4796986730     0.6258494507
Bq         0.7359244030     0.6024452599     1.1101677911
Bq         0.7589762910     0.4551493557     0.5289857826
Bq         0.7320824217     0.6269945773     1.2070314592
Bq         0.7628182723     0.4306000383     0.4321221145
Bq         0.7282404403     0.6515438947     1.3038951273
Bq         0.7666602536     0.4060507209     0.3352584464
Bq         0.7474503470     0.5287973078     0.8195767869
Bq         0.7445813199     0.6502864571     0.8919104255
Bq         0.7522652825     0.6011878224     0.6981830893
Bq         0.7407393385     0.6748357745     0.9887740936
Bq         0.7561072639     0.5766385050     0.6013194213
Bq         0.7368973572     0.6993850919     1.0856377617
Bq         0.7599492452     0.5520891876     0.5044557532
Bq         0.7330553759     0.7239344092     1.1825014298
Bq         0.7637912265     0.5275398702     0.4075920851
Bq         0.7292133946     0.7484837266     1.2793650979
Bq         0.7676332078     0.5029905529     0.3107284170
Bq         0.7484233012     0.6257371397     0.7950467574
Bq         0.7455542741     0.7472262890     0.8673803961
Bq         0.7532382368     0.6981276543     0.6736530599
Bq         0.7417122928     0.7717756064     0.9642440642
Bq         0.7570802181     0.6735783369     0.5767893918
Bq         0.7378703114     0.7963249238     1.0611077323
Bq         0.7609221994     0.6490290195     0.4799257237
Bq         0.7340283301     0.8208742412     1.1579714004
Bq         0.7647641807     0.6244797022     0.3830620557
Bq         0.7301863488     0.8454235585     1.2548350685
Bq         0.7686061621     0.5999303848     0.2861983876
Bq         0.7493962554     0.7226769717     0.7705167280
Bq         0.7465272283     0.8441661210     0.8428503667
Bq         0.7542111910     0.7950674862     0.6491230305
Bq         0.7426852470     0.8687154384     0.9397140348
Bq         0.7580531723     0.7705181689     0.5522593624
Bq         0.7388432657     0.8932647557     1.0365777029
Bq         0.7618951536     0.7459688515     0.4553956943
Bq         0.7350012843     0.9178140731     1.1334413709
Bq         0.7657371350     0.7214195341     0.3585320262
Bq         0.7311593030     0.9423633905     1.2303050390
Bq         0.7695791163     0.6968702167     0.2616683581
Bq         0.7503692097     0.8196168036     0.7459866986
Bq         0.7475001825     0.9411059529     0.8183203372
Bq         0.7551841452     0.8920073182     0.6245930011
Bq         0.7436582012     0.9656552703     0.9151840053
Bq         0.7590261265     0.8674580008     0.5277293330
Bq         0.7398162199     0.9902045877     1.0120476734
Bq         0.7628681079     0.8429086834     0.4308656649
Bq         0.7359742386     1.0147539051     1.1089113415
Bq         0.7667100892     0.8183593660     0.3340019968
Bq         0.7321322572     1.0393032224     1.2057750096
Bq         0.7705520705     0.7938100487     0.2371383287
Bq         0.7513421639     0.9165566355     0.7214566692
Bq         0.7484731368     1.0380457849     0.7937903078
Bq         0.7561570994     0.9889471501     0.6000629716
Bq         0.7446311554     1.0625951022     0.8906539759
Bq         0.7599990808     0.9643978327     0.5031993036
Bq         0.7407891741     1.0871444196     0.9875176440
Bq         0.7638410621     0.9398485154     0.4063356355
Bq         0.7369471928     1.1116937370     1.0843813121
Bq         0.7676830434     0.9152991980     0.3094719674
Bq         0.7331052115     1.1362430544     1.1812449802
Bq         0.7715250247     0.8907498806     0.2126082993
Bq         0.7523151181     1.0134964675     0.6969266397
Bq         0.7494460910     1.1349856168     0.7692602784
Bq         0.7571300537     1.0858869821     0.5755329422
Bq         0.7456041097     1.1595349342     0.8661239465
Bq         0.7609720350     1.0613376647     0.4786692741
Bq         0.7417621283     1.1840842516     0.9629876146
Bq         0.7648140163     1.0367883473     0.3818056060
Bq         0.7379201470     1.2086335689     1.0598512827
Bq         0.7686559976     1.0122390299     0.2849419379
Bq         0.7340781657     1.2331828863     1.1567149508
Bq         0.7724979790     0.9876897125     0.1880782699
Bq         0.7532880723     1.1104362994     0.6723966103
Bq         0.7504190452     1.2319254487     0.7447302490
Bq         0.7581030079     1.1828268140     0.5510029128
Bq         0.7465770639     1.2564747661     0.8415939171
Bq         0.7619449892     1.1582774966     0.4541392447
Bq         0.7427350826     1.2810240835     0.9384575851
Bq         0.7657869705     1.1337281792     0.3572755766
Bq         0.7388931012     1.3055734009     1.0353212532
Bq         0.7696289519     1.1091788619     0.2604119085
Bq         0.7350511199     1.3301227182     1.1321849213
Bq         0.7734709332     1.0846295445     0.1635482404
Bq         0.7542610266     1.2073761314     0.6478665809
Bq         0.7513919994     1.3288652807     0.7202002195
Bq         0.7590759621     1.2797666459     0.5264728834
Bq         0.7475500181     1.3534145981     0.8170638876
Bq         0.7629179434     1.2552173286     0.4296092153
Bq         0.7437080368     1.3779639154     0.9139275557
Bq         0.7667599248     1.2306680112     0.3327455472
Bq         0.7398660555     1.4025132328     1.0107912238
Bq         0.7706019061     1.2061186938     0.2358818791
Bq         0.7360240741     1.4270625502     1.1076548919
Bq         0.7744438874     1.1815693764     0.1390182110
Bq         0.7552339808     1.3043159633     0.6233365514
Bq         0.7523649537     1.4258051126     0.6956701901
Bq         0.7600489163     1.3767064779     0.5019428539
Bq         0.7485229723     1.4503544300     0.7925338582
Bq         0.7638908977     1.3521571605     0.4050791858
Bq         0.7446809910     1.4749037474     0.8893975263
Bq         0.7677328790     1.3276078431     0.3082155178
Bq         0.7408390097     1.4994530647     0.9862611944
Bq         0.7715748603     1.3030585257     0.2113518497
Bq         0.7369970284     1.5240023821     1.0831248625
Bq         0.7754168416     1.2785092084     0.1144881816
Bq         0.7562069350     1.4012557952     0.5988065220
Bq         0.7533379079     1.5227449446     0.6711401607
Bq         0.7610218706     1.4736463098     0.4774128245
Bq         0.7494959266     1.5472942619     0.7680038288
Bq         0.7648638519     1.4490969924     0.3805491564
Bq         0.7456539452     1.5718435793     0.8648674969
Bq         0.7687058332     1.4245476751     0.2836854883
Bq         0.7418119639     1.5963928967     0.9617311650
Bq         0.7725478145     1.3999983577     0.1868218202
Bq         0.7379699826     1.6209422141     1.0585948330
Bq         0.7763897959     1.3754490403     0.0899581521
Bq         0.7571798892     1.4981956272     0.5742764926
Bq         0.7543108621     1.6196847765     0.6466101313

1
2
3
4
5
6
7
8
9
10
11
12
13
14
15
16
17
18
19
20
21
22
23
24
25
26
27
28
29
30
31
32
33
34
35
36
37
38
39
40
41
42
43
44
45
46
47
48
49
50
51
52
53
54
55
56
57
58
59
60
61
62
63
64
65
66
67
68
69
70
71
72
73
74
75
76
77
78
79
80
81
82
83
84
85
86
87
88
89
90
91
92
93
94
95
96
97
98
99
100
101
102
103
104
105
106
107
108
109
110
111
112
113
114
115
116
117
118
119
120
121
122
123
124
125
126
127
128
129
130
131
132
133
134
135
136
137
138
139
140
141
142
143
144
145
146
147
148
149
150
151
152
153
154
155
156
157
158
159
160
161
162
163
164
165
166
167
168
169
170
171
172
173
174
175
176
177
178
179
180
181
182
183
184
185
186
187
188
189
190
191
192
193
194
195
196
197
198
199
200
201
202
203
204
205
206
207
208
209
210
211
212
213
214
215
216
217
218
219
220
221
222
223
224
225
226
227
228
229
230
231
232
233
234
235
236

