%nproc=8
%mem=1000MB
# rb3lyp/6-311+g** NMR geom=connectivity

Title

0 1
C    -4.0500558   -0.5771862    0.8136712
H    -5.0263804   -1.0082727    1.0024760
C    -3.9381552    0.6617804    0.2400876
H    -4.8252424    1.2338890   -0.0111295
C    -2.6768410    1.2433246    0.0057578
C    -1.4974121    0.5051527    0.2848253
C    -1.6508332   -0.7338728    0.9404026
H    -0.7713646   -1.2730967    1.2633753
C    -2.8898548   -1.2624035    1.1994307
H    -2.9683706   -2.2124563    1.7152676
C    -2.5773185    2.5963696   -0.4192930
H    -3.4870728    3.1412239   -0.6474055
C    -1.3741895    3.2147896   -0.4364030
H    -1.2997315    4.2742019   -0.6578144
C    -0.1719488    2.4994090   -0.1734588
C    -0.2043917    1.1018437    0.0192689
C     1.0513491    3.2042560   -0.0676222
H     1.0427344    4.2819499   -0.1896997
C     2.1942091    2.5487446    0.2579577
H     3.1168527    3.0912848    0.4334727
C     2.2216473    1.1336562    0.2934990
C     1.0486931    0.3945528    0.0302412
C     3.4483363    0.4614633    0.5573939
H     4.3095794    1.0606054    0.8334846
C     3.5427346   -0.8855926    0.4749463
H     4.4731467   -1.3939704    0.7038822
C     2.4490052   -1.6474447   -0.0196319
C     1.2150704   -1.0057258   -0.3013573
C     0.2531113   -1.7434440   -1.0216591
H    -0.6541356   -1.2535051   -1.3462847
C     0.4494193   -3.0628597   -1.3413779
H    -0.3083162   -3.5944309   -1.9054060
C     1.6251726   -3.7207967   -0.9552541
H     1.7670048   -4.7687404   -1.1927019
C     2.6109872   -3.0144177   -0.3183050
H     3.5525612   -3.4902813   -0.0646367
Bq        -0.1750029579     0.6495875277     0.6506644779
Bq        -0.1170991457     0.6299335874     0.2553660196
Bq        -0.1894789109     0.6545010128     0.7494890925
Bq        -0.1026231926     0.6250201023     0.1565414050
Bq        -0.2039548640     0.6594144979     0.8483137071
Bq        -0.0881472396     0.6201066172     0.0577167904
Bq        -0.2184308170     0.6643279830     0.9471383217
Bq        -0.0736712866     0.6151931321    -0.0411078242
Bq        -0.1460510518     0.6397605576     0.4530152487
Bq        -0.1598148709     0.7445532580     0.5469782586
Bq        -0.1308629648     0.7347262878     0.3493290294
Bq        -0.1742908239     0.7494667431     0.6458028731
Bq        -0.1163870117     0.7298128028     0.2505044148
Bq        -0.1887667770     0.7543802282     0.7446274877
Bq        -0.1019110587     0.7248993177     0.1516798002
Bq        -0.2032427300     0.7592937133     0.8434521023
Bq        -0.0874351057     0.7199858326     0.0528551856
Bq        -0.2177186831     0.7642071983     0.9422767169
Bq        -0.0729591526     0.7150723475    -0.0459694290
Bq        -0.1453389178     0.7396397729     0.4481536440
Bq        -0.1591027369     0.8444324734     0.5421166538
Bq        -0.1301508308     0.8346055032     0.3444674246
Bq        -0.1735786900     0.8493459585     0.6409412684
Bq        -0.1156748778     0.8296920181     0.2456428100
Bq        -0.1880546430     0.8542594436     0.7397658830
Bq        -0.1011989248     0.8247785331     0.1468181954
Bq        -0.2025305961     0.8591729286     0.8385904975
Bq        -0.0867229717     0.8198650480     0.0479935809
Bq        -0.2170065491     0.8640864137     0.9374151121
Bq        -0.0722470187     0.8149515629    -0.0508310337
Bq        -0.1446267839     0.8395189883     0.4432920392
Bq        -0.1583906030     0.9443116888     0.5372550490
Bq        -0.1294386969     0.9344847186     0.3396058198
Bq        -0.1728665560     0.9492251739     0.6360796636
Bq        -0.1149627439     0.9295712335     0.2407812053
Bq        -0.1873425091     0.9541386589     0.7349042782
Bq        -0.1004867908     0.9246577484     0.1419565907
Bq        -0.2018184621     0.9590521440     0.8337288928
Bq        -0.0860108378     0.9197442634     0.0431319761
Bq        -0.2162944152     0.9639656291     0.9325535074
Bq        -0.0715348847     0.9148307783    -0.0556926385
Bq        -0.1439146500     0.9393982037     0.4384304344
Bq        -0.1576784691     1.0441909041     0.5323934443
Bq        -0.1287265630     1.0343639340     0.3347442151
Bq        -0.1721544221     1.0491043892     0.6312180588
Bq        -0.1142506099     1.0294504489     0.2359196005
Bq        -0.1866303751     1.0540178743     0.7300426734
Bq        -0.0997746569     1.0245369638     0.1370949859
Bq        -0.2011063282     1.0589313594     0.8288672880
Bq        -0.0852987038     1.0196234787     0.0382703713
Bq        -0.2155822812     1.0638448445     0.9276919026
Bq        -0.0708227508     1.0147099936    -0.0605542433
Bq        -0.1432025160     1.0392774191     0.4335688297
Bq        -0.1569663351     1.1440701195     0.5275318395
Bq        -0.1280144290     1.1342431494     0.3298826103
Bq        -0.1714422882     1.1489836046     0.6263564541
Bq        -0.1135384760     1.1293296643     0.2310579957
Bq        -0.1859182412     1.1538970897     0.7251810687
Bq        -0.0990625229     1.1244161792     0.1322333811
Bq        -0.2003941942     1.1588105748     0.8240056832
Bq        -0.0845865699     1.1195026941     0.0334087666
Bq        -0.2148701473     1.1637240599     0.9228302978
Bq        -0.0701106168     1.1145892090    -0.0654158480
Bq        -0.1424903821     1.1391566344     0.4287072249
Bq        -0.1562542012     1.2439493349     0.5226702347
Bq        -0.1273022951     1.2341223647     0.3250210056
Bq        -0.1707301542     1.2488628200     0.6214948493
Bq        -0.1128263420     1.2292088797     0.2261963910
Bq        -0.1852061073     1.2537763051     0.7203194639
Bq        -0.0983503890     1.2242953946     0.1273717764
Bq        -0.1996820603     1.2586897901     0.8191440785
Bq        -0.0838744359     1.2193819095     0.0285471618
Bq        -0.2141580133     1.2636032752     0.9179686931
Bq        -0.0693984829     1.2144684244    -0.0702774528
Bq        -0.1417782481     1.2390358498     0.4238456201
Bq        -0.1555420672     1.3438285503     0.5178086300
Bq        -0.1265901611     1.3340015801     0.3201594008
Bq        -0.1700180203     1.3487420354     0.6166332445
Bq        -0.1121142081     1.3290880950     0.2213347862
Bq        -0.1844939733     1.3536555204     0.7154578591
Bq        -0.0976382551     1.3241746099     0.1225101716
Bq        -0.1989699264     1.3585690055     0.8142824737
Bq        -0.0831623020     1.3192611249     0.0236855570
Bq        -0.2134458794     1.3634824906     0.9131070883
Bq        -0.0686863490     1.3143476398    -0.0751390576
Bq        -0.1410661142     1.3389150652     0.4189840154
Bq        -0.1548299333     1.4437077657     0.5129470252
Bq        -0.1258780272     1.4338807955     0.3152977960
Bq        -0.1693058863     1.4486212507     0.6117716398
Bq        -0.1114020742     1.4289673104     0.2164731814
Bq        -0.1837818394     1.4535347358     0.7105962544
Bq        -0.0969261211     1.4240538253     0.1176485668
Bq        -0.1982577924     1.4584482209     0.8094208689
Bq        -0.0824501681     1.4191403402     0.0188239523
Bq        -0.2127337455     1.4633617060     0.9082454835
Bq        -0.0679742150     1.4142268552    -0.0800006623
Bq        -0.1403539802     1.4387942806     0.4141224106
Bq        -0.1541177993     1.5435869810     0.5080854204
Bq        -0.1251658933     1.5337600109     0.3104361913
Bq        -0.1685937524     1.5485004661     0.6069100350
Bq        -0.1106899402     1.5288465258     0.2116115767
Bq        -0.1830697054     1.5534139512     0.7057346496
Bq        -0.0962139872     1.5239330407     0.1127869621
Bq        -0.1975456585     1.5583274363     0.8045592642
Bq        -0.0817380341     1.5190195556     0.0139623475
Bq        -0.2120216115     1.5632409214     0.9033838788
Bq        -0.0672620811     1.5141060705    -0.0848622671
Bq        -0.1396418463     1.5386734959     0.4092608058
Bq        -0.1534056654     1.6434661964     0.5032238157
Bq        -0.1244537593     1.6336392262     0.3055745865
Bq        -0.1678816184     1.6483796815     0.6020484302
Bq        -0.1099778063     1.6287257412     0.2067499719
Bq        -0.1823575715     1.6532931666     0.7008730448
Bq        -0.0955018532     1.6238122561     0.1079253573
Bq        -0.1968335245     1.6582066517     0.7996976594
Bq        -0.0810259002     1.6188987710     0.0091007427
Bq        -0.2113094776     1.6631201367     0.8985222740
Bq        -0.0665499471     1.6139852859    -0.0897238719
Bq        -0.1389297124     1.6385527113     0.4043992011
Bq        -0.1526935315     1.7433454118     0.4983622109
Bq        -0.1237416254     1.7335184416     0.3007129817
Bq        -0.1671694845     1.7482588969     0.5971868255
Bq        -0.1092656723     1.7286049565     0.2018883671
Bq        -0.1816454375     1.7531723819     0.6960114401
Bq        -0.0947897193     1.7236914715     0.1030637525
Bq        -0.1961213906     1.7580858670     0.7948360546
Bq        -0.0803137662     1.7187779864     0.0042391380
Bq        -0.2105973436     1.7629993521     0.8936606692
Bq        -0.0658378132     1.7138645013    -0.0945854766
Bq        -0.1382175784     1.7384319267     0.3995375963
Bq        -0.1519813975     1.8432246272     0.4935006061
Bq        -0.1230294914     1.8333976570     0.2958513770
Bq        -0.1664573506     1.8481381122     0.5923252207
Bq        -0.1085535384     1.8284841719     0.1970267624
Bq        -0.1809333036     1.8530515973     0.6911498353
Bq        -0.0940775853     1.8235706868     0.0982021478
Bq        -0.1954092567     1.8579650824     0.7899744499
Bq        -0.0796016323     1.8186572017    -0.0006224668
Bq        -0.2098852097     1.8628785675     0.8887990645
Bq        -0.0651256793     1.8137437167    -0.0994470814
Bq        -0.1375054445     1.8383111421     0.3946759915
Bq        -0.1512692636     1.9431038425     0.4886390014
Bq        -0.1223173575     1.9332768724     0.2909897722
Bq        -0.1657452166     1.9480173276     0.5874636159
Bq        -0.1078414044     1.9283633873     0.1921651576
Bq        -0.1802211697     1.9529308127     0.6862882305
Bq        -0.0933654514     1.9234499022     0.0933405430
Bq        -0.1946971227     1.9578442978     0.7851128451
Bq        -0.0788894984     1.9185364171    -0.0054840716
Bq        -0.2091730758     1.9627577829     0.8839374597
Bq        -0.0644135453     1.9136229320    -0.1043086862
Bq        -0.1367933105     1.9381903575     0.3898143868
Bq        -0.1505571296     2.0429830579     0.4837773966
Bq        -0.1216052235     2.0331560878     0.2861281674
Bq        -0.1650330827     2.0478965430     0.5826020112
Bq        -0.1071292705     2.0282426027     0.1873035528
Bq        -0.1795090357     2.0528100281     0.6814266258
Bq        -0.0926533175     2.0233291176     0.0884789382
Bq        -0.1939849888     2.0577235132     0.7802512403
Bq        -0.0781773644     2.0184156325    -0.0103456763
Bq        -0.2084609418     2.0626369982     0.8790758549
Bq        -0.0637014114     2.0135021474    -0.1091702909
Bq        -0.1360811766     2.0380695728     0.3849527820
Bq        -0.1498449957     2.1428622733     0.4789157918
Bq        -0.1208930896     2.1330353031     0.2812665627
Bq        -0.1643209487     2.1477757584     0.5777404064
Bq        -0.1064171366     2.1281218180     0.1824419481
Bq        -0.1787969018     2.1526892435     0.6765650210
Bq        -0.0919411835     2.1232083330     0.0836173335
Bq        -0.1932728548     2.1576027285     0.7753896356
Bq        -0.0774652305     2.1182948479    -0.0152072811
Bq        -0.2077488079     2.1625162136     0.8742142502
Bq        -0.0629892774     2.1133813628    -0.1140318957
Bq        -0.1353690427     2.1379487882     0.3800911772
Bq        -0.1491328618     2.2427414887     0.4740541871
Bq        -0.1201809557     2.2329145185     0.2764049579
Bq        -0.1636088148     2.2476549738     0.5728788016
Bq        -0.1057050026     2.2280010334     0.1775803433
Bq        -0.1780847678     2.2525684588     0.6717034162
Bq        -0.0912290496     2.2230875483     0.0787557287
Bq        -0.1925607209     2.2574819439     0.7705280308
Bq        -0.0767530965     2.2181740633    -0.0200688859
Bq        -0.2070366739     2.2623954290     0.8693526454
Bq        -0.0622771435     2.2132605782    -0.1188935005
Bq        -0.1346569087     2.2378280036     0.3752295725
Bq        -0.1484207278     2.3426207040     0.4691925823
Bq        -0.1194688217     2.3327937339     0.2715433531
Bq        -0.1628966809     2.3475341891     0.5680171969
Bq        -0.1049928687     2.3278802488     0.1727187385
Bq        -0.1773726339     2.3524476742     0.6668418115
Bq        -0.0905169156     2.3229667637     0.0738941239
Bq        -0.1918485869     2.3573611593     0.7656664260
Bq        -0.0760409626     2.3180532786    -0.0249304906
Bq        -0.2063245400     2.3622746444     0.8644910406
Bq        -0.0615650095     2.3131397936    -0.1237551052
Bq        -0.1339447748     2.3377072190     0.3703679677
Bq        -0.1477085939     2.4424999194     0.4643309775
Bq        -0.1187566878     2.4326729493     0.2666817484
Bq        -0.1621845469     2.4474134045     0.5631555921
Bq        -0.1042807347     2.4277594642     0.1678571338

1
2
3
4
5
6
7
8
9
10
11
12
13
14
15
16
17
18
19
20
21
22
23
24
25
26
27
28
29
30
31
32
33
34
35
36
37
38
39
40
41
42
43
44
45
46
47
48
49
50
51
52
53
54
55
56
57
58
59
60
61
62
63
64
65
66
67
68
69
70
71
72
73
74
75
76
77
78
79
80
81
82
83
84
85
86
87
88
89
90
91
92
93
94
95
96
97
98
99
100
101
102
103
104
105
106
107
108
109
110
111
112
113
114
115
116
117
118
119
120
121
122
123
124
125
126
127
128
129
130
131
132
133
134
135
136
137
138
139
140
141
142
143
144
145
146
147
148
149
150
151
152
153
154
155
156
157
158
159
160
161
162
163
164
165
166
167
168
169
170
171
172
173
174
175
176
177
178
179
180
181
182
183
184
185
186
187
188
189
190
191
192
193
194
195
196
197
198
199
200
201
202
203
204
205
206
207
208
209
210
211
212
213
214
215
216
217
218
219
220
221
222
223
224
225
226
227
228
229
230
231
232
233
234
235
236

