%nproc=8
%mem=1000MB
# rb3lyp/6-311+g** NMR geom=connectivity

Title

0 1
C    -4.0500558   -0.5771862    0.8136712
H    -5.0263804   -1.0082727    1.0024760
C    -3.9381552    0.6617804    0.2400876
H    -4.8252424    1.2338890   -0.0111295
C    -2.6768410    1.2433246    0.0057578
C    -1.4974121    0.5051527    0.2848253
C    -1.6508332   -0.7338728    0.9404026
H    -0.7713646   -1.2730967    1.2633753
C    -2.8898548   -1.2624035    1.1994307
H    -2.9683706   -2.2124563    1.7152676
C    -2.5773185    2.5963696   -0.4192930
H    -3.4870728    3.1412239   -0.6474055
C    -1.3741895    3.2147896   -0.4364030
H    -1.2997315    4.2742019   -0.6578144
C    -0.1719488    2.4994090   -0.1734588
C    -0.2043917    1.1018437    0.0192689
C     1.0513491    3.2042560   -0.0676222
H     1.0427344    4.2819499   -0.1896997
C     2.1942091    2.5487446    0.2579577
H     3.1168527    3.0912848    0.4334727
C     2.2216473    1.1336562    0.2934990
C     1.0486931    0.3945528    0.0302412
C     3.4483363    0.4614633    0.5573939
H     4.3095794    1.0606054    0.8334846
C     3.5427346   -0.8855926    0.4749463
H     4.4731467   -1.3939704    0.7038822
C     2.4490052   -1.6474447   -0.0196319
C     1.2150704   -1.0057258   -0.3013573
C     0.2531113   -1.7434440   -1.0216591
H    -0.6541356   -1.2535051   -1.3462847
C     0.4494193   -3.0628597   -1.3413779
H    -0.3083162   -3.5944309   -1.9054060
C     1.6251726   -3.7207967   -0.9552541
H     1.7670048   -4.7687404   -1.1927019
C     2.6109872   -3.0144177   -0.3183050
H     3.5525612   -3.4902813   -0.0646367
Bq         0.0204929614    -1.8709711418     0.2560098741
Bq         0.2259238760    -1.7571498696    -0.5087403186
Bq        -0.0051859029    -1.8851988008     0.3516036482
Bq         0.2516027403    -1.7429222105    -0.6043340927
Bq         0.1232084187    -1.8140605057    -0.1263652223
Bq         0.0938385039    -1.7293054707    -0.0170309086
Bq         0.1451962325    -1.7008501526    -0.2082184568
Bq         0.0681596395    -1.7435331297     0.0785628655
Bq         0.1708750968    -1.6866224936    -0.3038122309
Bq         0.0424807752    -1.7577607887     0.1741566396
Bq         0.1965539612    -1.6723948346    -0.3994060050
Bq         0.0168019109    -1.7719884478     0.2697504137
Bq         0.2222328255    -1.6581671755    -0.4949997791
Bq        -0.0088769534    -1.7862161068     0.3653441878
Bq         0.2479116898    -1.6439395165    -0.5905935532
Bq         0.1195173682    -1.7150778116    -0.1126246827
Bq         0.0901474533    -1.6303227766    -0.0032903691
Bq         0.1415051820    -1.6018674586    -0.1944779172
Bq         0.0644685890    -1.6445504357     0.0923034050
Bq         0.1671840463    -1.5876397995    -0.2900716913
Bq         0.0387897247    -1.6587780947     0.1878971791
Bq         0.1928629106    -1.5734121405    -0.3856654654
Bq         0.0131108604    -1.6730057537     0.2834909532
Bq         0.2185417749    -1.5591844815    -0.4812592395
Bq        -0.0125680040    -1.6872334127     0.3790847273
Bq         0.2442206393    -1.5449568225    -0.5768530136
Bq         0.1158263177    -1.6160951176    -0.0988841431
Bq         0.0864564028    -1.5313400826     0.0104501705
Bq         0.1378141314    -1.5028847645    -0.1807373777
Bq         0.0607775385    -1.5455677416     0.1060439446
Bq         0.1634929958    -1.4886571055    -0.2763311518
Bq         0.0350986742    -1.5597954007     0.2016377187
Bq         0.1891718601    -1.4744294465    -0.3719249259
Bq         0.0094198098    -1.5740230597     0.2972314928
Bq         0.2148507244    -1.4602017875    -0.4675187000
Bq        -0.0162590545    -1.5882507187     0.3928252669
Bq         0.2405295887    -1.4459741284    -0.5631124741
Bq         0.1121352671    -1.5171124236    -0.0851436036
Bq         0.0827653523    -1.4323573886     0.0241907101
Bq         0.1341230809    -1.4039020705    -0.1669968381
Bq         0.0570864879    -1.4465850476     0.1197844842
Bq         0.1598019452    -1.3896744115    -0.2625906122
Bq         0.0314076236    -1.4608127066     0.2153782583
Bq         0.1854808096    -1.3754467524    -0.3581843863
Bq         0.0057287593    -1.4750403656     0.3109720323
Bq         0.2111596739    -1.3612190934    -0.4537781604
Bq        -0.0199501050    -1.4892680247     0.4065658064
Bq         0.2368385382    -1.3469914344    -0.5493719345
Bq         0.1084442166    -1.4181297295    -0.0714030640
Bq         0.0790743017    -1.3333746945     0.0379312496
Bq         0.1304320304    -1.3049193765    -0.1532562986
Bq         0.0533954374    -1.3476023536     0.1335250237
Bq         0.1561108947    -1.2906917174    -0.2488500727
Bq         0.0277165731    -1.3618300126     0.2291187978
Bq         0.1817897590    -1.2764640584    -0.3444438468
Bq         0.0020377088    -1.3760576716     0.3247125719
Bq         0.2074686233    -1.2622363994    -0.4400376209
Bq        -0.0236411556    -1.3902853306     0.4203063460
Bq         0.2331474877    -1.2480087404    -0.5356313949
Bq         0.1047531661    -1.3191470355    -0.0576625245
Bq         0.0753832512    -1.2343920005     0.0516717892
Bq         0.1267409798    -1.2059366824    -0.1395157590
Bq         0.0497043869    -1.2486196595     0.1472655633
Bq         0.1524198442    -1.1917090234    -0.2351095331
Bq         0.0240255225    -1.2628473185     0.2428593374
Bq         0.1780987085    -1.1774813644    -0.3307033072
Bq        -0.0016533418    -1.2770749776     0.3384531115
Bq         0.2037775728    -1.1632537054    -0.4262970813
Bq        -0.0273322061    -1.2913026366     0.4340468856
Bq         0.2294564371    -1.1490260463    -0.5218908554
Bq         0.1010621155    -1.2201643415    -0.0439219849
Bq         0.0716922007    -1.1354093065     0.0654123287
Bq         0.1230499293    -1.1069539884    -0.1257752194
Bq         0.0460133363    -1.1496369655     0.1610061028
Bq         0.1487287936    -1.0927263294    -0.2213689935
Bq         0.0203344720    -1.1638646245     0.2565998769
Bq         0.1744076579    -1.0784986703    -0.3169627676
Bq        -0.0053443923    -1.1780922835     0.3521936510
Bq         0.2000865223    -1.0642710113    -0.4125565417
Bq        -0.0310232566    -1.1923199426     0.4477874251
Bq         0.2257653866    -1.0500433523    -0.5081503158
Bq         0.0973710650    -1.1211816474    -0.0301814454
Bq         0.0680011501    -1.0364266124     0.0791528683
Bq         0.1193588788    -1.0079712944    -0.1120346799
Bq         0.0423222858    -1.0506542714     0.1747466424
Bq         0.1450377431    -0.9937436353    -0.2076284540
Bq         0.0166434215    -1.0648819305     0.2703404165
Bq         0.1707166074    -0.9795159763    -0.3032222281
Bq        -0.0090354428    -1.0791095895     0.3659341906
Bq         0.1963954717    -0.9652883173    -0.3988160022
Bq        -0.0347143072    -1.0933372485     0.4615279647
Bq         0.2220743361    -0.9510606583    -0.4944097763
Bq         0.0936800144    -1.0221989534    -0.0164409058
Bq         0.0643100996    -0.9374439184     0.0928934079
Bq         0.1156678282    -0.9089886003    -0.0982941403
Bq         0.0386312353    -0.9516715774     0.1884871820
Bq         0.1413466926    -0.8947609413    -0.1938879144
Bq         0.0129523709    -0.9658992364     0.2840809560
Bq         0.1670255569    -0.8805332823    -0.2894816885
Bq        -0.0127264934    -0.9801268955     0.3796747301
Bq         0.1927044212    -0.8663056232    -0.3850754626
Bq        -0.0384053577    -0.9943545545     0.4752685042
Bq         0.2183832855    -0.8520779642    -0.4806692367
Bq         0.0899889639    -0.9232162594    -0.0027003662
Bq         0.0606190491    -0.8384612243     0.1066339474
Bq         0.1119767777    -0.8100059063    -0.0845536008
Bq         0.0349401847    -0.8526888834     0.2022277215
Bq         0.1376556420    -0.7957782473    -0.1801473749
Bq         0.0092613204    -0.8669165424     0.2978214956
Bq         0.1633345063    -0.7815505882    -0.2757411490
Bq        -0.0164175439    -0.8811442014     0.3934152697
Bq         0.1890133707    -0.7673229292    -0.3713349231
Bq        -0.0420964082    -0.8953718605     0.4890090438
Bq         0.2146922350    -0.7530952702    -0.4669286972
Bq         0.0862979134    -0.8242335653     0.0110401733
Bq         0.0569279985    -0.7394785303     0.1203744870
Bq         0.1082857272    -0.7110232123    -0.0708130612
Bq         0.0312491342    -0.7537061893     0.2159682611
Bq         0.1339645915    -0.6967955532    -0.1664068353
Bq         0.0055702699    -0.7679338484     0.3115620352
Bq         0.1596434558    -0.6825678942    -0.2620006094
Bq        -0.0201085945    -0.7821615074     0.4071558093
Bq         0.1853223201    -0.6683402352    -0.3575943835
Bq        -0.0457874588    -0.7963891664     0.5027495834
Bq         0.2110011845    -0.6541125761    -0.4531881576
Bq         0.0826068628    -0.7252508713     0.0247807129
Bq         0.0532369480    -0.6404958363     0.1341150265
Bq         0.1045946766    -0.6120405182    -0.0570725217
Bq         0.0275580837    -0.6547234953     0.2297088006
Bq         0.1302735409    -0.5978128592    -0.1526662958
Bq         0.0018792193    -0.6689511543     0.3253025747
Bq         0.1559524053    -0.5835852002    -0.2482600698
Bq        -0.0237996450    -0.6831788134     0.4208963488
Bq         0.1816312696    -0.5693575411    -0.3438538439
Bq        -0.0494785093    -0.6974064724     0.5164901229
Bq         0.2073101339    -0.5551298821    -0.4394476180
Bq         0.0789158123    -0.6262681772     0.0385212524
Bq         0.0495458974    -0.5415131422     0.1478555661
Bq         0.1009036261    -0.5130578242    -0.0433319821
Bq         0.0238670331    -0.5557408013     0.2434493402
Bq         0.1265824904    -0.4988301652    -0.1389257562
Bq        -0.0018118312    -0.5699684603     0.3390431143
Bq         0.1522613547    -0.4846025061    -0.2345195303
Bq        -0.0274906955    -0.5841961193     0.4346368884
Bq         0.1779402191    -0.4703748471    -0.3301133044
Bq        -0.0531695598    -0.5984237784     0.5302306625
Bq         0.2036190834    -0.4561471881    -0.4257070785
Bq         0.0752247618    -0.5272854832     0.0522617920
Bq         0.0458548469    -0.4425304482     0.1615961057
Bq         0.0972125756    -0.4140751301    -0.0295914425
Bq         0.0201759826    -0.4567581072     0.2571898797
Bq         0.1228914399    -0.3998474711    -0.1251852166
Bq        -0.0055028817    -0.4709857663     0.3527836538
Bq         0.1485703042    -0.3856198121    -0.2207789907
Bq        -0.0311817461    -0.4852134253     0.4483774279
Bq         0.1742491685    -0.3713921531    -0.3163727648
Bq        -0.0568606104    -0.4994410843     0.5439712020
Bq         0.1999280328    -0.3571644940    -0.4119665389
Bq         0.0715337112    -0.4283027892     0.0660023316
Bq         0.0421637964    -0.3435477542     0.1753366452
Bq         0.0935215250    -0.3150924361    -0.0158509030
Bq         0.0164849321    -0.3577754132     0.2709304193
Bq         0.1192003893    -0.3008647771    -0.1114446771
Bq        -0.0091939323    -0.3720030722     0.3665241934
Bq         0.1448792537    -0.2866371181    -0.2070384512
Bq        -0.0348727966    -0.3862307313     0.4621179675
Bq         0.1705581180    -0.2724094590    -0.3026322253
Bq        -0.0605516609    -0.4004583903     0.5577117416
Bq         0.1962369823    -0.2581818000    -0.3982259994
Bq         0.0678426607    -0.3293200951     0.0797428711
Bq         0.0384727458    -0.2445650601     0.1890771848
Bq         0.0898304745    -0.2161097421    -0.0021103634
Bq         0.0127938815    -0.2587927192     0.2846709589
Bq         0.1155093388    -0.2018820830    -0.0977041375
Bq        -0.0128849828    -0.2730203782     0.3802647330
Bq         0.1411882031    -0.1876544240    -0.1932979116
Bq        -0.0385638471    -0.2872480372     0.4758585071
Bq         0.1668670675    -0.1734267650    -0.2888916857
Bq        -0.0642427115    -0.3014756962     0.5714522811
Bq         0.1925459318    -0.1591991060    -0.3844854598
Bq         0.0641516102    -0.2303374011     0.0934834107
Bq         0.0347816953    -0.1455823661     0.2028177243
Bq         0.0861394239    -0.1171270480     0.0116301761
Bq         0.0091028310    -0.1598100251     0.2984114984
Bq         0.1118182883    -0.1028993890    -0.0839635980
Bq        -0.0165760333    -0.1740376842     0.3940052725
Bq         0.1374971526    -0.0886717300    -0.1795573721
Bq        -0.0422548977    -0.1882653432     0.4895990466
Bq         0.1631760169    -0.0744440710    -0.2751511461
Bq        -0.0679337620    -0.2024930022     0.5851928207
Bq         0.1888548812    -0.0602164119    -0.3707449202
Bq         0.0604605596    -0.1313547071     0.1072239502
Bq         0.0310906448    -0.0465996721     0.2165582639
Bq         0.0824483734    -0.0181443540     0.0253707157
Bq         0.0054117804    -0.0608273311     0.3121520380
Bq         0.1081272377    -0.0039166950    -0.0702230584
Bq        -0.0202670839    -0.0750549901     0.4077458121
Bq         0.1338061021     0.0103109641    -0.1658168325
Bq        -0.0459459482    -0.0892826491     0.5033395862
Bq         0.1594849664     0.0245386231    -0.2614106066

1
2
3
4
5
6
7
8
9
10
11
12
13
14
15
16
17
18
19
20
21
22
23
24
25
26
27
28
29
30
31
32
33
34
35
36
37
38
39
40
41
42
43
44
45
46
47
48
49
50
51
52
53
54
55
56
57
58
59
60
61
62
63
64
65
66
67
68
69
70
71
72
73
74
75
76
77
78
79
80
81
82
83
84
85
86
87
88
89
90
91
92
93
94
95
96
97
98
99
100
101
102
103
104
105
106
107
108
109
110
111
112
113
114
115
116
117
118
119
120
121
122
123
124
125
126
127
128
129
130
131
132
133
134
135
136
137
138
139
140
141
142
143
144
145
146
147
148
149
150
151
152
153
154
155
156
157
158
159
160
161
162
163
164
165
166
167
168
169
170
171
172
173
174
175
176
177
178
179
180
181
182
183
184
185
186
187
188
189
190
191
192
193
194
195
196
197
198
199
200
201
202
203
204
205
206
207
208
209
210
211
212
213
214
215
216
217
218
219
220
221
222
223
224
225
226
227
228
229
230
231
232
233
234
235
236

