%nproc=8
%mem=1000MB
# rb3lyp/6-311+g** NMR geom=connectivity

Title

0 1
C    -4.0500558   -0.5771862    0.8136712
H    -5.0263804   -1.0082727    1.0024760
C    -3.9381552    0.6617804    0.2400876
H    -4.8252424    1.2338890   -0.0111295
C    -2.6768410    1.2433246    0.0057578
C    -1.4974121    0.5051527    0.2848253
C    -1.6508332   -0.7338728    0.9404026
H    -0.7713646   -1.2730967    1.2633753
C    -2.8898548   -1.2624035    1.1994307
H    -2.9683706   -2.2124563    1.7152676
C    -2.5773185    2.5963696   -0.4192930
H    -3.4870728    3.1412239   -0.6474055
C    -1.3741895    3.2147896   -0.4364030
H    -1.2997315    4.2742019   -0.6578144
C    -0.1719488    2.4994090   -0.1734588
C    -0.2043917    1.1018437    0.0192689
C     1.0513491    3.2042560   -0.0676222
H     1.0427344    4.2819499   -0.1896997
C     2.1942091    2.5487446    0.2579577
H     3.1168527    3.0912848    0.4334727
C     2.2216473    1.1336562    0.2934990
C     1.0486931    0.3945528    0.0302412
C     3.4483363    0.4614633    0.5573939
H     4.3095794    1.0606054    0.8334846
C     3.5427346   -0.8855926    0.4749463
H     4.4731467   -1.3939704    0.7038822
C     2.4490052   -1.6474447   -0.0196319
C     1.2150704   -1.0057258   -0.3013573
C     0.2531113   -1.7434440   -1.0216591
H    -0.6541356   -1.2535051   -1.3462847
C     0.4494193   -3.0628597   -1.3413779
H    -0.3083162   -3.5944309   -1.9054060
C     1.6251726   -3.7207967   -0.9552541
H     1.7670048   -4.7687404   -1.1927019
C     2.6109872   -3.0144177   -0.3183050
H     3.5525612   -3.4902813   -0.0646367
Bq         0.1491792403     2.1879302328     0.1624178196
Bq        -0.0305728099     2.0883366196     0.8315742383
Bq         0.1748581046     2.2021578919     0.0668240455
Bq        -0.0562516743     2.0741089606     0.9271680124
Bq         0.2005369690     2.2163855509    -0.0287697286
Bq         0.0721426474     2.1452472558     0.4491991419
Bq         0.3275925599    -2.8181151051    -0.1162912802
Bq         0.3789502885    -2.7896597870    -0.3074788284
Bq         0.3019136955    -2.8323427641    -0.0206975061
Bq         0.4046291528    -2.7754321280    -0.4030726025
Bq         0.2762348312    -2.8465704231     0.0748962680
Bq         0.4303080171    -2.7612044690    -0.4986663766
Bq         0.2505559669    -2.8607980821     0.1704900421
Bq         0.4559868815    -2.7469768099    -0.5942601507
Bq         0.2248771026    -2.8750257412     0.2660838162
Bq         0.4816657458    -2.7327491509    -0.6898539248
Bq         0.3532714242    -2.8038874460    -0.2118850543
Bq         0.3239015093    -2.7191324110    -0.1025507406
Bq         0.3752592380    -2.6906770930    -0.2937382888
Bq         0.2982226450    -2.7333600701    -0.0069569665
Bq         0.4009381023    -2.6764494339    -0.3893320629
Bq         0.2725437807    -2.7475877291     0.0886368076
Bq         0.4266169666    -2.6622217749    -0.4849258370
Bq         0.2468649163    -2.7618153881     0.1842305817
Bq         0.4522958309    -2.6479941159    -0.5805196111
Bq         0.2211860520    -2.7760430471     0.2798243558
Bq         0.4779746953    -2.6337664569    -0.6761133852
Bq         0.3495803736    -2.7049047520    -0.1981445147
Bq         0.3202104588    -2.6201497170    -0.0888102011
Bq         0.3715681874    -2.5916943989    -0.2799977493
Bq         0.2945315945    -2.6343773760     0.0067835730
Bq         0.3972470517    -2.5774667399    -0.3755915233
Bq         0.2688527301    -2.6486050350     0.1023773471
Bq         0.4229259161    -2.5632390809    -0.4711852974
Bq         0.2431738658    -2.6628326941     0.1979711212
Bq         0.4486047804    -2.5490114219    -0.5667790715
Bq         0.2174950015    -2.6770603531     0.2935648953
Bq         0.4742836447    -2.5347837628    -0.6623728456
Bq         0.3458893231    -2.6059220580    -0.1844039752
Bq         0.3165194082    -2.5211670230    -0.0750696615
Bq         0.3678771369    -2.4927117049    -0.2662572097
Bq         0.2908405439    -2.5353946820     0.0205241126
Bq         0.3935560012    -2.4784840459    -0.3618509838
Bq         0.2651616796    -2.5496223410     0.1161178867
Bq         0.4192348655    -2.4642563868    -0.4574447579
Bq         0.2394828153    -2.5638500000     0.2117116608
Bq         0.4449137299    -2.4500287278    -0.5530385320
Bq         0.2138039510    -2.5780776591     0.3073054349
Bq         0.4705925942    -2.4358010688    -0.6486323061
Bq         0.3421982726    -2.5069393639    -0.1706634356
Bq         0.3128283577    -2.4221843289    -0.0613291219
Bq         0.3641860864    -2.3937290109    -0.2525166701
Bq         0.2871494934    -2.4364119879     0.0342646521
Bq         0.3898649507    -2.3795013518    -0.3481104442
Bq         0.2614706291    -2.4506396470     0.1298584262
Bq         0.4155438150    -2.3652736928    -0.4437042183
Bq         0.2357917647    -2.4648673060     0.2254522003
Bq         0.4412226793    -2.3510460338    -0.5392979924
Bq         0.2101129004    -2.4790949650     0.3210459744
Bq         0.4669015436    -2.3368183748    -0.6348917665
Bq         0.3385072220    -2.4079566699    -0.1569228960
Bq         0.3091373072    -2.3232016349    -0.0475885824
Bq         0.3604950358    -2.2947463168    -0.2387761306
Bq         0.2834584429    -2.3374292939     0.0480051917
Bq         0.3861739001    -2.2805186578    -0.3343699047
Bq         0.2577795785    -2.3516569529     0.1435989658
Bq         0.4118527645    -2.2662909988    -0.4299636788
Bq         0.2321007142    -2.3658846120     0.2391927399
Bq         0.4375316288    -2.2520633397    -0.5255574529
Bq         0.2064218499    -2.3801122710     0.3347865140
Bq         0.4632104931    -2.2378356807    -0.6211512270
Bq         0.3348161715    -2.3089739759    -0.1431823565
Bq         0.3054462566    -2.2242189408    -0.0338480428
Bq         0.3568039853    -2.1957636228    -0.2250355910
Bq         0.2797673923    -2.2384465999     0.0617457313
Bq         0.3824828496    -2.1815359638    -0.3206293651
Bq         0.2540885280    -2.2526742589     0.1573395054
Bq         0.4081617139    -2.1673083047    -0.4162231392
Bq         0.2284096637    -2.2669019179     0.2529332795
Bq         0.4338405783    -2.1530806457    -0.5118169133
Bq         0.2027307993    -2.2811295770     0.3485270535
Bq         0.4595194426    -2.1388529867    -0.6074106874
Bq         0.3311251210    -2.2099912818    -0.1294418169
Bq         0.3017552061    -2.1252362468    -0.0201075033
Bq         0.3531129347    -2.0967809288    -0.2112950515
Bq         0.2760763418    -2.1394639058     0.0754862708
Bq         0.3787917991    -2.0825532697    -0.3068888256
Bq         0.2503974775    -2.1536915649     0.1710800449
Bq         0.4044706634    -2.0683256107    -0.4024825997
Bq         0.2247186131    -2.1679192239     0.2666738190
Bq         0.4301495277    -2.0540979517    -0.4980763737
Bq         0.1990397488    -2.1821468829     0.3622675931
Bq         0.4558283920    -2.0398702926    -0.5936701478
Bq         0.3274340704    -2.1110085878    -0.1157012774
Bq         0.2980641556    -2.0262535528    -0.0063669637
Bq         0.3494218842    -1.9977982347    -0.1975545119
Bq         0.2723852912    -2.0404812118     0.0892268104
Bq         0.3751007485    -1.9835705757    -0.2931482860
Bq         0.2467064269    -2.0547088708     0.1848205845
Bq         0.4007796129    -1.9693429167    -0.3887420601
Bq         0.2210275626    -2.0689365299     0.2804143586
Bq         0.4264584772    -1.9551152576    -0.4843358342
Bq         0.1953486983    -2.0831641889     0.3760081327
Bq         0.4521373415    -1.9408875986    -0.5799296083
Bq         0.3237430199    -2.0120258937    -0.1019607378
Bq         0.2943731050    -1.9272708587     0.0073735758
Bq         0.3457308337    -1.8988155407    -0.1838139723
Bq         0.2686942407    -1.9414985178     0.1029673499
Bq         0.3714096980    -1.8845878817    -0.2794077464
Bq         0.2430153764    -1.9557261768     0.1985611240
Bq         0.3970885623    -1.8703602226    -0.3750015205
Bq         0.2173365121    -1.9699538358     0.2941548981
Bq         0.4227674266    -1.8561325636    -0.4705952946
Bq         0.1916576477    -1.9841814949     0.3897486722
Bq         0.4484462910    -1.8419049046    -0.5661890687
Bq         0.3200519694    -1.9130431997    -0.0882201982
Bq         0.2906820545    -1.8282881647     0.0211141154
Bq         0.3420397831    -1.7998328466    -0.1700734328
Bq         0.2650031902    -1.8425158237     0.1167078895
Bq         0.3677186475    -1.7856051876    -0.2656672069
Bq         0.2393243259    -1.8567434828     0.2123016636
Bq         0.3933975118    -1.7713775286    -0.3612609810
Bq         0.2136454615    -1.8709711418     0.3078954377
Bq         0.4190763761    -1.7571498696    -0.4568547551
Bq         0.1879665972    -1.8851988008     0.4034892118
Bq         0.4447552404    -1.7429222105    -0.5524485292
Bq         0.3163609188    -1.8140605057    -0.0744796587
Bq         0.2869910040    -1.7293054707     0.0348546550
Bq         0.3383487326    -1.7008501526    -0.1563328932
Bq         0.2613121396    -1.7435331297     0.1304484291
Bq         0.3640275969    -1.6866224936    -0.2519266673
Bq         0.2356332753    -1.7577607887     0.2260422032
Bq         0.3897064613    -1.6723948346    -0.3475204414
Bq         0.2099544110    -1.7719884478     0.3216359772
Bq         0.4153853256    -1.6581671755    -0.4431142155
Bq         0.1842755467    -1.7862161068     0.4172297513
Bq         0.4410641899    -1.6439395165    -0.5387079896
Bq         0.3126698683    -1.7150778116    -0.0607391191
Bq         0.2832999534    -1.6303227766     0.0485951945
Bq         0.3346576821    -1.6018674586    -0.1425923537
Bq         0.2576210891    -1.6445504357     0.1441889686
Bq         0.3603365464    -1.5876397995    -0.2381861278
Bq         0.2319422248    -1.6587780947     0.2397827427
Bq         0.3860154107    -1.5734121405    -0.3337799019
Bq         0.2062633605    -1.6730057537     0.3353765168
Bq         0.4116942750    -1.5591844815    -0.4293736760
Bq         0.1805844961    -1.6872334127     0.4309702909
Bq         0.4373731394    -1.5449568225    -0.5249674500
Bq         0.3089788177    -1.6160951176    -0.0469985796
Bq         0.2796089029    -1.5313400826     0.0623357341
Bq         0.3309666315    -1.5028847645    -0.1288518141
Bq         0.2539300386    -1.5455677416     0.1579295082
Bq         0.3566454959    -1.4886571055    -0.2244455882
Bq         0.2282511742    -1.5597954007     0.2535232823
Bq         0.3823243602    -1.4744294465    -0.3200393623
Bq         0.2025723099    -1.5740230597     0.3491170564
Bq         0.4080032245    -1.4602017875    -0.4156331364
Bq         0.1768934456    -1.5882507187     0.4447108305
Bq         0.4336820888    -1.4459741284    -0.5112269105
Bq         0.3052877672    -1.5171124236    -0.0332580400
Bq         0.2759178524    -1.4323573886     0.0760762736
Bq         0.3272755810    -1.4039020705    -0.1151112745
Bq         0.2502389880    -1.4465850476     0.1716700477
Bq         0.3529544453    -1.3896744115    -0.2107050486
Bq         0.2245601237    -1.4608127066     0.2672638218
Bq         0.3786333096    -1.3754467524    -0.3062988227
Bq         0.1988812594    -1.4750403656     0.3628575959
Bq         0.4043121740    -1.3612190934    -0.4018925968
Bq         0.1732023951    -1.4892680247     0.4584513700
Bq         0.4299910383    -1.3469914344    -0.4974863709
Bq         0.3015967167    -1.4181297295    -0.0195175005
Bq         0.2722268018    -1.3333746945     0.0898168132
Bq         0.3235845305    -1.3049193765    -0.1013707350
Bq         0.2465479375    -1.3476023536     0.1854105873
Bq         0.3492633948    -1.2906917174    -0.1969645091
Bq         0.2208690732    -1.3618300126     0.2810043614
Bq         0.3749422591    -1.2764640584    -0.2925582832
Bq         0.1951902089    -1.3760576716     0.3765981355
Bq         0.4006211234    -1.2622363994    -0.3881520573
Bq         0.1695113445    -1.3902853306     0.4721919096
Bq         0.4262999878    -1.2480087404    -0.4837458314
Bq         0.2979056661    -1.3191470355    -0.0057769609
Bq         0.2685357513    -1.2343920005     0.1035573528
Bq         0.3198934799    -1.2059366824    -0.0876301954
Bq         0.2428568870    -1.2486196595     0.1991511269
Bq         0.3455723443    -1.1917090234    -0.1832239695
Bq         0.2171780226    -1.2628473185     0.2947449009
Bq         0.3712512086    -1.1774813644    -0.2788177436
Bq         0.1914991583    -1.2770749776     0.3903386750
Bq         0.3969300729    -1.1632537054    -0.3744115177
Bq         0.1658202940    -1.2913026366     0.4859324491
Bq         0.4226089372    -1.1490260463    -0.4700052918
Bq         0.2942146156    -1.2201643415     0.0079635787
Bq         0.2648447008    -1.1354093065     0.1172978923
Bq         0.3162024294    -1.1069539884    -0.0738896559
Bq         0.2391658364    -1.1496369655     0.2128916664
Bq         0.3418812937    -1.0927263294    -0.1694834300
Bq         0.2134869721    -1.1638646245     0.3084854405
Bq         0.3675601580    -1.0784986703    -0.2650772041
Bq         0.1878081078    -1.1780922835     0.4040792146

1
2
3
4
5
6
7
8
9
10
11
12
13
14
15
16
17
18
19
20
21
22
23
24
25
26
27
28
29
30
31
32
33
34
35
36
37
38
39
40
41
42
43
44
45
46
47
48
49
50
51
52
53
54
55
56
57
58
59
60
61
62
63
64
65
66
67
68
69
70
71
72
73
74
75
76
77
78
79
80
81
82
83
84
85
86
87
88
89
90
91
92
93
94
95
96
97
98
99
100
101
102
103
104
105
106
107
108
109
110
111
112
113
114
115
116
117
118
119
120
121
122
123
124
125
126
127
128
129
130
131
132
133
134
135
136
137
138
139
140
141
142
143
144
145
146
147
148
149
150
151
152
153
154
155
156
157
158
159
160
161
162
163
164
165
166
167
168
169
170
171
172
173
174
175
176
177
178
179
180
181
182
183
184
185
186
187
188
189
190
191
192
193
194
195
196
197
198
199
200
201
202
203
204
205
206
207
208
209
210
211
212
213
214
215
216
217
218
219
220
221
222
223
224
225
226
227
228
229
230
231
232
233
234
235
236

