%nproc=8
%mem=1000MB
# rb3lyp/6-311+g** NMR geom=connectivity

Title

0 1
C    -4.0500558   -0.5771862    0.8136712
H    -5.0263804   -1.0082727    1.0024760
C    -3.9381552    0.6617804    0.2400876
H    -4.8252424    1.2338890   -0.0111295
C    -2.6768410    1.2433246    0.0057578
C    -1.4974121    0.5051527    0.2848253
C    -1.6508332   -0.7338728    0.9404026
H    -0.7713646   -1.2730967    1.2633753
C    -2.8898548   -1.2624035    1.1994307
H    -2.9683706   -2.2124563    1.7152676
C    -2.5773185    2.5963696   -0.4192930
H    -3.4870728    3.1412239   -0.6474055
C    -1.3741895    3.2147896   -0.4364030
H    -1.2997315    4.2742019   -0.6578144
C    -0.1719488    2.4994090   -0.1734588
C    -0.2043917    1.1018437    0.0192689
C     1.0513491    3.2042560   -0.0676222
H     1.0427344    4.2819499   -0.1896997
C     2.1942091    2.5487446    0.2579577
H     3.1168527    3.0912848    0.4334727
C     2.2216473    1.1336562    0.2934990
C     1.0486931    0.3945528    0.0302412
C     3.4483363    0.4614633    0.5573939
H     4.3095794    1.0606054    0.8334846
C     3.5427346   -0.8855926    0.4749463
H     4.4731467   -1.3939704    0.7038822
C     2.4490052   -1.6474447   -0.0196319
C     1.2150704   -1.0057258   -0.3013573
C     0.2531113   -1.7434440   -1.0216591
H    -0.6541356   -1.2535051   -1.3462847
C     0.4494193   -3.0628597   -1.3413779
H    -0.3083162   -3.5944309   -1.9054060
C     1.6251726   -3.7207967   -0.9552541
H     1.7670048   -4.7687404   -1.1927019
C     2.6109872   -3.0144177   -0.3183050
H     3.5525612   -3.4902813   -0.0646367
Bq        -0.9442039723     2.8566107119     0.5754652967
Bq        -0.9134681217     2.6602161729    -0.1994440480
Bq        -0.9480459537     2.8811600293     0.6723289648
Bq        -0.9096261404     2.6356668555    -0.2963077161
Bq        -0.9288360470     2.7584134424     0.1880106244
Bq        -0.9317050741     2.8799025917     0.2603442630
Bq        -0.9240211115     2.8308039570     0.0666169268
Bq        -0.9355470555     2.9044519091     0.3572079311
Bq        -0.9201791301     2.8062546396    -0.0302467413
Bq        -0.9393890368     2.9290012265     0.4540715992
Bq        -0.9163371488     2.7817053222    -0.1271104093
Bq        -0.9432310181     2.9535505438     0.5509352673
Bq        -0.9124951675     2.7571560048    -0.2239740774
Bq        -0.9470729994     2.9780998612     0.6477989354
Bq        -0.9086531861     2.7326066875    -0.3208377455
Bq        -0.9278630928     2.8553532743     0.1634805949
Bq        -0.9307321199     2.9768424236     0.2358142336
Bq        -0.9230481572     2.9277437889     0.0420868974
Bq        -0.9345741012     3.0013917410     0.3326779017
Bq        -0.9192061759     2.9031944715    -0.0547767707
Bq        -0.9384160826     3.0259410584     0.4295415698
Bq        -0.9153641946     2.8786451541    -0.1516404388
Bq        -0.9422580639     3.0504903758     0.5264052379
Bq        -0.9115222133     2.8540958368    -0.2485041069
Bq        -0.9461000452     3.0750396931     0.6232689059
Bq        -0.9076802319     2.8295465194    -0.3453677750
Bq        -0.9268901386     2.9522931063     0.1389505655
Bq        -0.9297591657     3.0737822556     0.2112842042
Bq        -0.9220752030     3.0246836208     0.0175568680
Bq        -0.9336011470     3.0983315730     0.3081478723
Bq        -0.9182332217     3.0001343035    -0.0793068001
Bq        -0.9374431283     3.1228808903     0.4050115403
Bq        -0.9143912404     2.9755849861    -0.1761704682
Bq        -0.9412851097     3.1474302077     0.5018752084
Bq        -0.9105492590     2.9510356687    -0.2730341363
Bq        -0.9451270910     3.1719795251     0.5987388765
Bq        -0.9067072777     2.9264863513    -0.3698978044
Bq        -0.9259171843     3.0492329382     0.1144205361
Bq        -0.9287862115     3.1707220875     0.1867541747
Bq        -0.9211022488     3.1216234528    -0.0069731614
Bq        -0.9326281928     3.1952714049     0.2836178428
Bq        -0.9172602675     3.0970741354    -0.1038368295
Bq        -0.9364701741     3.2198207223     0.3804815109
Bq        -0.9134182861     3.0725248180    -0.2007004976
Bq        -0.9403121554     3.2443700397     0.4773451790
Bq        -0.9095763048     3.0479755006    -0.2975641657
Bq        -0.9441541368     3.2689193570     0.5742088471
Bq        -0.9057343235     3.0234261833    -0.3944278338
Bq        -0.9249442301     3.1461727701     0.0898905066
Bq        -0.9278132572     3.2676619195     0.1622241453
Bq        -0.9201292946     3.2185632847    -0.0315031909
Bq        -0.9316552386     3.2922112368     0.2590878134
Bq        -0.9162873132     3.1940139673    -0.1283668590
Bq        -0.9354972199     3.3167605542     0.3559514815
Bq        -0.9124453319     3.1694646500    -0.2252305271
Bq        -0.9393392012     3.3413098716     0.4528151496
Bq        -0.9086033506     3.1449153326    -0.3220941951
Bq        -0.9431811825     3.3658591890     0.5496788177
Bq        -0.9047613693     3.1203660152    -0.4189578632
Bq        -0.9239712759     3.2431126021     0.0653604772
Bq        -0.9268403030     3.3646017514     0.1376941159
Bq        -0.9191563403     3.3155031167    -0.0560332203
Bq        -0.9306822843     3.3891510688     0.2345577840
Bq        -0.9153143590     3.2909537993    -0.1528968884
Bq        -0.9345242657     3.4137003862     0.3314214521
Bq        -0.9114723777     3.2664044819    -0.2497605565
Bq        -0.9383662470     3.4382497035     0.4282851202
Bq        -0.9076303964     3.2418551645    -0.3466242246
Bq        -0.9422082283     3.4627990209     0.5251487882
Bq        -0.9037884150     3.2173058471    -0.4434878927
Bq        -0.9229983217     3.3400524340     0.0408304478
Bq        -0.9258673488     3.4615415833     0.1131640865
Bq        -0.9181833861     3.4124429486    -0.0805632497
Bq        -0.9297093301     3.4860909007     0.2100277545
Bq        -0.9143414048     3.3878936312    -0.1774269178
Bq        -0.9335513114     3.5106402181     0.3068914226
Bq        -0.9104994235     3.3633443138    -0.2742905859
Bq        -0.9373932928     3.5351895355     0.4037550907
Bq        -0.9066574421     3.3387949965    -0.3711542540
Bq        -0.9412352741     3.5597388528     0.5006187588
Bq        -0.9028154608     3.3142456791    -0.4680179221
Bq        -0.9220253674     3.4369922660     0.0163004184
Bq        -0.9248943946     3.5584814153     0.0886340570
Bq        -0.9172104319     3.5093827805    -0.1050932792
Bq        -0.9287363759     3.5830307327     0.1854977251
Bq        -0.9133684506     3.4848334632    -0.2019569472
Bq        -0.9325783572     3.6075800500     0.2823613932
Bq        -0.9095264692     3.4602841458    -0.2988206153
Bq        -0.9364203385     3.6321293674     0.3792250613
Bq        -0.9056844879     3.4357348284    -0.3956842834
Bq        -0.9402623199     3.6566786848     0.4760887294
Bq        -0.9018425066     3.4111855110    -0.4925479515
Bq        -0.9210524132     3.5339320979    -0.0082296111
Bq        -0.9239214403     3.6554212472     0.0641040276
Bq        -0.9162374777     3.6063226125    -0.1296233086
Bq        -0.9277634217     3.6799705646     0.1609676957
Bq        -0.9123954963     3.5817732951    -0.2264869767
Bq        -0.9316054030     3.7045198820     0.2578313638
Bq        -0.9085535150     3.5572239777    -0.3233506448
Bq        -0.9354473843     3.7290691993     0.3546950319
Bq        -0.9047115337     3.5326746603    -0.4202143129
Bq        -0.9392893656     3.7536185167     0.4515587000
Bq        -0.9008695524     3.5081253430    -0.5170779809
Bq        -0.9200794590     3.6308719298    -0.0327596405
Bq        -0.9229484861     3.7523610792     0.0395739982
Bq        -0.9152645234     3.7032624444    -0.1541533380
Bq        -0.9267904674     3.7769103965     0.1364376663
Bq        -0.9114225421     3.6787131270    -0.2510170061
Bq        -0.9306324488     3.8014597139     0.2333013344
Bq        -0.9075805608     3.6541638097    -0.3478806742
Bq        -0.9344744301     3.8260090313     0.3301650024
Bq        -0.9037385795     3.6296144923    -0.4447443423
Bq        -0.9383164114     3.8505583487     0.4270286705
Bq        -0.8998965981     3.6050651749    -0.5416080104
Bq        -0.9191065048     3.7278117618    -0.0572896699
Bq        -0.9219755319     3.8493009111     0.0150439687
Bq        -0.9142915692     3.8002022763    -0.1786833674
Bq        -0.9258175132     3.8738502285     0.1119076368
Bq        -0.9104495879     3.7756529590    -0.2755470355
Bq        -0.9296594945     3.8983995458     0.2087713049
Bq        -0.9066076066     3.7511036416    -0.3724107036
Bq        -0.9335014759     3.9229488632     0.3056349730
Bq        -0.9027656252     3.7265543242    -0.4692743717
Bq        -0.9373434572     3.9474981806     0.4024986411
Bq        -0.8989236439     3.7020050068    -0.5661380398
Bq        -0.9181335506     3.8247515937    -0.0818196993
Bq        -0.9210025777     3.9462407430    -0.0094860607
Bq        -0.9133186150     3.8971421083    -0.2032133969
Bq        -0.9248445590     3.9707900604     0.0873776074
Bq        -0.9094766337     3.8725927909    -0.3000770650
Bq        -0.9286865403     3.9953393778     0.1842412755
Bq        -0.9056346523     3.8480434735    -0.3969407330
Bq        -0.9325285216     4.0198886952     0.2811049436
Bq        -0.9017926710     3.8234941562    -0.4938044011
Bq        -0.9363705030     4.0444380125     0.3779686117
Bq        -0.8979506897     3.7989448388    -0.5906680692
Bq        -0.9171605963     3.9216914257    -0.1063497288
Bq        -0.9200296234     4.0431805750    -0.0340160901
Bq        -0.9123456608     3.9940819402    -0.2277434263
Bq        -0.9238716048     4.0677298924     0.0628475780
Bq        -0.9085036794     3.9695326228    -0.3246070944
Bq        -0.9277135861     4.0922792097     0.1597112461
Bq        -0.9046616981     3.9449833055    -0.4214707625
Bq        -0.9315555674     4.1168285271     0.2565749142
Bq        -0.9008197168     3.9204339881    -0.5183344306
Bq        -0.9353975487     4.1413778445     0.3534385823
Bq        -0.8969777355     3.8958846707    -0.6151980986
Bq        -0.9161876421     4.0186312576    -0.1308797582
Bq        -0.9190566692     4.1401204069    -0.0585461195
Bq        -0.9113727065     4.0910217722    -0.2522734557
Bq        -0.9228986505     4.1646697243     0.0383175486
Bq        -0.9075307252     4.0664724548    -0.3491371238
Bq        -0.9267406319     4.1892190417     0.1351812166
Bq        -0.9036887439     4.0419231374    -0.4460007919
Bq        -0.9305826132     4.2137683590     0.2320448847
Bq        -0.8998467626     4.0173738200    -0.5428644600
Bq        -0.9344245945     4.2383176764     0.3289085528
Bq        -0.8960047812     3.9928245027    -0.6397281281
Bq        -0.9152146879     4.1155710895    -0.1554097876
Bq        -0.9180837150     4.2370602389    -0.0830761490
Bq        -0.9103997523     4.1879616041    -0.2768034851
Bq        -0.9219256963     4.2616095562     0.0137875191
Bq        -0.9065577710     4.1634122867    -0.3736671532
Bq        -0.9257676776     4.2861588736     0.1106511872
Bq        -0.9027157897     4.1388629694    -0.4705308213
Bq        -0.9296096590     4.3107081910     0.2075148553
Bq        -0.8988738083     4.1143136520    -0.5673944894
Bq        -0.9334516403     4.3352575084     0.3043785234
Bq        -0.8950318270     4.0897643346    -0.6642581575
Bq        -0.9142417337     4.2125109215    -0.1799398171
Bq        -0.9171107608     4.3340000708    -0.1076061784
Bq        -0.9094267981     4.2849014360    -0.3013335146
Bq        -0.9209527421     4.3585493882    -0.0107425103
Bq        -0.9055848168     4.2603521187    -0.3981971827
Bq        -0.9247947234     4.3830987055     0.0861211578
Bq        -0.9017428354     4.2358028013    -0.4950608508
Bq        -0.9286367047     4.4076480229     0.1829848259
Bq        -0.8979008541     4.2112534839    -0.5919245188
Bq        -0.9324786861     4.4321973403     0.2798484940
Bq        -0.8940588728     4.1867041665    -0.6887881869
Bq        -0.9132687794     4.3094507534    -0.2044698465
Bq        -0.9161378065     4.4309399027    -0.1321362078
Bq        -0.9084538439     4.3818412680    -0.3258635440
Bq        -0.9199797879     4.4554892201    -0.0352725397
Bq        -0.9046118625     4.3572919506    -0.4227272121
Bq        -0.9238217692     4.4800385375     0.0615911284
Bq        -0.9007698812     4.3327426332    -0.5195908802
Bq        -0.9276637505     4.5045878549     0.1584547965
Bq        -0.8969278999     4.3081933159    -0.6164545483
Bq        -0.9315057318     4.5291371722     0.2553184645
Bq        -0.8930859186     4.2836439985    -0.7133182164
Bq        -0.9122958252     4.4063905854    -0.2289998759
Bq        -0.8648640859    -0.4160516942     1.0983285274
Bq        -0.8571801233    -0.4651503290     0.9046011912
Bq        -0.8687060673    -0.3915023768     1.1951921955
Bq        -0.8533381419    -0.4896996464     0.8077375231
Bq        -0.8725480486    -0.3669530595     1.2920558636
Bq        -0.8494961606    -0.5142489637     0.7108738550
Bq        -0.8763900299    -0.3424037421     1.3889195317
Bq        -0.8456541793    -0.5387982811     0.6140101870

1
2
3
4
5
6
7
8
9
10
11
12
13
14
15
16
17
18
19
20
21
22
23
24
25
26
27
28
29
30
31
32
33
34
35
36
37
38
39
40
41
42
43
44
45
46
47
48
49
50
51
52
53
54
55
56
57
58
59
60
61
62
63
64
65
66
67
68
69
70
71
72
73
74
75
76
77
78
79
80
81
82
83
84
85
86
87
88
89
90
91
92
93
94
95
96
97
98
99
100
101
102
103
104
105
106
107
108
109
110
111
112
113
114
115
116
117
118
119
120
121
122
123
124
125
126
127
128
129
130
131
132
133
134
135
136
137
138
139
140
141
142
143
144
145
146
147
148
149
150
151
152
153
154
155
156
157
158
159
160
161
162
163
164
165
166
167
168
169
170
171
172
173
174
175
176
177
178
179
180
181
182
183
184
185
186
187
188
189
190
191
192
193
194
195
196
197
198
199
200
201
202
203
204
205
206
207
208
209
210
211
212
213
214
215
216
217
218
219
220
221
222
223
224
225
226
227
228
229
230
231
232
233
234
235
236

