%nproc=8
%mem=1000MB
# rb3lyp/6-311+g** NMR geom=connectivity

Title

0 1
C    -4.0500558   -0.5771862    0.8136712
H    -5.0263804   -1.0082727    1.0024760
C    -3.9381552    0.6617804    0.2400876
H    -4.8252424    1.2338890   -0.0111295
C    -2.6768410    1.2433246    0.0057578
C    -1.4974121    0.5051527    0.2848253
C    -1.6508332   -0.7338728    0.9404026
H    -0.7713646   -1.2730967    1.2633753
C    -2.8898548   -1.2624035    1.1994307
H    -2.9683706   -2.2124563    1.7152676
C    -2.5773185    2.5963696   -0.4192930
H    -3.4870728    3.1412239   -0.6474055
C    -1.3741895    3.2147896   -0.4364030
H    -1.2997315    4.2742019   -0.6578144
C    -0.1719488    2.4994090   -0.1734588
C    -0.2043917    1.1018437    0.0192689
C     1.0513491    3.2042560   -0.0676222
H     1.0427344    4.2819499   -0.1896997
C     2.1942091    2.5487446    0.2579577
H     3.1168527    3.0912848    0.4334727
C     2.2216473    1.1336562    0.2934990
C     1.0486931    0.3945528    0.0302412
C     3.4483363    0.4614633    0.5573939
H     4.3095794    1.0606054    0.8334846
C     3.5427346   -0.8855926    0.4749463
H     4.4731467   -1.3939704    0.7038822
C     2.4490052   -1.6474447   -0.0196319
C     1.2150704   -1.0057258   -0.3013573
C     0.2531113   -1.7434440   -1.0216591
H    -0.6541356   -1.2535051   -1.3462847
C     0.4494193   -3.0628597   -1.3413779
H    -0.3083162   -3.5944309   -1.9054060
C     1.6251726   -3.7207967   -0.9552541
H     1.7670048   -4.7687404   -1.1927019
C     2.6109872   -3.0144177   -0.3183050
H     3.5525612   -3.4902813   -0.0646367
Bq         1.7270115479     3.7458432044     0.7753304495
Bq         1.7849153601     3.7261892641     0.3800319912
Bq         1.7125355948     3.7507566895     0.8741550641
Bq         1.7993913131     3.7212757790     0.2812073766
Bq         1.6980596418     3.7556701746     0.9729796787
Bq         1.8138672662     3.7163622939     0.1823827620
Bq         1.6835836888     3.7605836597     1.0718042933
Bq         1.8283432192     3.7114488088     0.0835581474
Bq         1.7559634540     3.7360162342     0.5776812203
Bq         1.7421996349     3.8408089347     0.6716442302
Bq         1.7711515410     3.8309819645     0.4739950010
Bq         1.7277236818     3.8457224198     0.7704688447
Bq         1.7856274940     3.8260684795     0.3751703864
Bq         1.7132477288     3.8506359049     0.8692934593
Bq         1.8001034471     3.8211549944     0.2763457718
Bq         1.6987717757     3.8555493900     0.9681180739
Bq         1.8145794001     3.8162415093     0.1775211572
Bq         1.6842958227     3.8604628750     1.0669426885
Bq         1.8290553531     3.8113280242     0.0786965426
Bq         1.7566755879     3.8358954496     0.5728196156
Bq         1.7429117688     3.9406881501     0.6667826254
Bq         1.7718636749     3.9308611799     0.4691333962
Bq         1.7284358158     3.9456016352     0.7656072400
Bq         1.7863396279     3.9259476948     0.3703087816
Bq         1.7139598627     3.9505151202     0.8644318546
Bq         1.8008155810     3.9210342098     0.2714841671
Bq         1.6994839097     3.9554286053     0.9632564691
Bq         1.8152915340     3.9161207247     0.1726595525
Bq         1.6850079566     3.9603420904     1.0620810837
Bq         1.8297674871     3.9112072396     0.0738349379
Bq         1.7573877219     3.9357746650     0.5679580108
Bq         1.7436239028     4.0405673655     0.6619210206
Bq         1.7725758088     4.0307403953     0.4642717915
Bq         1.7291479497     4.0454808505     0.7607456352
Bq         1.7870517619     4.0258269102     0.3654471769
Bq         1.7146719967     4.0503943356     0.8595702498
Bq         1.8015277149     4.0209134251     0.2666225623
Bq         1.7001960436     4.0553078207     0.9583948644
Bq         1.8160036680     4.0159999400     0.1677979477
Bq         1.6857200906     4.0602213058     1.0572194790
Bq         1.8304796210     4.0110864550     0.0689733331
Bq         1.7580998558     4.0356538804     0.5630964060
Bq         1.7443360367     4.1404465808     0.6570594159
Bq         1.7732879428     4.1306196107     0.4594101867
Bq         1.7298600837     4.1453600659     0.7558840304
Bq         1.7877638958     4.1257061256     0.3605855721
Bq         1.7153841306     4.1502735510     0.8547086450
Bq         1.8022398489     4.1207926405     0.2617609575
Bq         1.7009081776     4.1551870361     0.9535332596
Bq         1.8167158019     4.1158791554     0.1629363429
Bq         1.6864322245     4.1601005212     1.0523578742
Bq         1.8311917550     4.1109656703     0.0641117283
Bq         1.7588119897     4.1355330958     0.5582348013
Bq         1.7450481706     4.2403257962     0.6521978111
Bq         1.7740000767     4.2304988260     0.4545485819
Bq         1.7305722176     4.2452392813     0.7510224257
Bq         1.7884760298     4.2255853410     0.3557239673
Bq         1.7160962646     4.2501527664     0.8498470403
Bq         1.8029519828     4.2206718559     0.2568993528
Bq         1.7016203115     4.2550662515     0.9486716548
Bq         1.8174279359     4.2157583708     0.1580747382
Bq         1.6871443585     4.2599797365     1.0474962694
Bq         1.8319038889     4.2108448857     0.0592501236
Bq         1.7595241237     4.2354123111     0.5533731965
Bq         1.7457603046     4.3402050116     0.6473362063
Bq         1.7747122107     4.3303780414     0.4496869772
Bq         1.7312843515     4.3451184967     0.7461608209
Bq         1.7891881637     4.3254645563     0.3508623626
Bq         1.7168083985     4.3500319818     0.8449854355
Bq         1.8036641168     4.3205510713     0.2520377480
Bq         1.7023324454     4.3549454668     0.9438100501
Bq         1.8181400698     4.3156375862     0.1532131334
Bq         1.6878564924     4.3598589519     1.0426346647
Bq         1.8326160228     4.3107241011     0.0543885188
Bq         1.7602362576     4.3352915265     0.5485115917
Bq         1.8090977314    -0.6537557573     0.9049099036
Bq         1.8380496375    -0.6635827274     0.7072606744
Bq         1.7946217783    -0.6488422722     1.0037345181
Bq         1.8525255905    -0.6684962125     0.6084360598
Bq         1.7801458253    -0.6439287871     1.1025591327
Bq         1.8670015435    -0.6734096976     0.5096114452
Bq         1.7656698722    -0.6390153020     1.2013837473
Bq         1.8814774966    -0.6783231827     0.4107868306
Bq         1.7511939192    -0.6341018169     1.3002083619
Bq         1.8959534496    -0.6832366678     0.3119622161
Bq         1.8235736844    -0.6586692423     0.8060852890
Bq         1.8098098653    -0.5538765419     0.9000482988
Bq         1.8387617714    -0.5637035121     0.7023990696
Bq         1.7953339123    -0.5489630568     0.9988729134
Bq         1.8532377244    -0.5686169971     0.6035744550
Bq         1.7808579592    -0.5440495717     1.0976975280
Bq         1.8677136775    -0.5735304822     0.5047498405
Bq         1.7663820062    -0.5391360866     1.1965221425
Bq         1.8821896305    -0.5784439673     0.4059252259
Bq         1.7519060531    -0.5342226016     1.2953467571
Bq         1.8966655836    -0.5833574524     0.3071006113
Bq         1.8242858184    -0.5587900270     0.8012236842
Bq         1.8105219993    -0.4539973265     0.8951866940
Bq         1.8394739053    -0.4638242967     0.6975374649
Bq         1.7960460462    -0.4490838414     0.9940113086
Bq         1.8539498584    -0.4687377818     0.5987128503
Bq         1.7815700932    -0.4441703563     1.0928359232
Bq         1.8684258114    -0.4736512668     0.4998882357
Bq         1.7670941401    -0.4392568713     1.1916605378
Bq         1.8829017645    -0.4785647519     0.4010636211
Bq         1.7526181871    -0.4343433862     1.2904851524
Bq         1.8973777175    -0.4834782370     0.3022390065
Bq         1.8249979523    -0.4589108116     0.7963620794
Bq         1.8112341332    -0.3541181111     0.8903250893
Bq         1.8401860393    -0.3639450813     0.6926758601
Bq         1.7967581802    -0.3492046261     0.9891497038
Bq         1.8546619923    -0.3688585664     0.5938512455
Bq         1.7822822271    -0.3442911410     1.0879743184
Bq         1.8691379454    -0.3737720515     0.4950266309
Bq         1.7678062741    -0.3393776559     1.1867989330
Bq         1.8836138984    -0.3786855365     0.3962020163
Bq         1.7533303210    -0.3344641708     1.2856235476
Bq         1.8980898515    -0.3835990216     0.2973774018
Bq         1.8257100862    -0.3590315962     0.7915004747
Bq         1.8119462671    -0.2542388958     0.8854634845
Bq         1.8408981732    -0.2640658659     0.6878142553
Bq         1.7974703141    -0.2493254107     0.9842880991
Bq         1.8553741263    -0.2689793510     0.5889896407
Bq         1.7829943610    -0.2444119256     1.0831127137
Bq         1.8698500793    -0.2738928361     0.4901650262
Bq         1.7685184080    -0.2394984405     1.1819373283
Bq         1.8843260324    -0.2788063212     0.3913404116
Bq         1.7540424550    -0.2345849554     1.2807619428
Bq         1.8988019854    -0.2837198063     0.2925157970
Bq         1.8264222202    -0.2591523808     0.7866388699
Bq         1.8126584011    -0.1543596804     0.8806018797
Bq         1.8416103072    -0.1641866505     0.6829526506
Bq         1.7981824480    -0.1494461953     0.9794264943
Bq         1.8560862602    -0.1691001356     0.5841280360
Bq         1.7837064950    -0.1445327102     1.0782511089
Bq         1.8705622133    -0.1740136207     0.4853034214
Bq         1.7692305419    -0.1396192251     1.1770757235
Bq         1.8850381663    -0.1789271058     0.3864788068
Bq         1.7547545889    -0.1347057400     1.2759003381
Bq         1.8995141193    -0.1838405909     0.2876541922
Bq         1.8271343541    -0.1592731655     0.7817772651
Bq         1.8133705350    -0.0544804650     0.8757402750
Bq         1.8423224411    -0.0643074352     0.6780910458
Bq         1.7988945820    -0.0495669799     0.9745648895
Bq         1.8567983942    -0.0692209203     0.5792664312
Bq         1.7844186289    -0.0446534948     1.0733895041
Bq         1.8712743472    -0.0741344053     0.4804418166
Bq         1.7699426759    -0.0397400098     1.1722141187
Bq         1.8857503002    -0.0790478904     0.3816172020
Bq         1.7554667228    -0.0348265247     1.2710387333
Bq         1.9002262533    -0.0839613755     0.2827925875
Bq         1.8278464881    -0.0593939501     0.7769156604
Bq         1.8140826690     0.0453987504     0.8708786702
Bq         1.8430345750     0.0355717802     0.6732294410
Bq         1.7996067159     0.0503122355     0.9697032848
Bq         1.8575105281     0.0306582951     0.5744048264
Bq         1.7851307629     0.0552257205     1.0685278994
Bq         1.8719864811     0.0257448100     0.4755802119
Bq         1.7706548098     0.0601392056     1.1673525140
Bq         1.8864624342     0.0208313250     0.3767555973
Bq         1.7561788568     0.0650526907     1.2661771285
Bq         1.9009383872     0.0159178399     0.2779309827
Bq         1.8285586220     0.0404852653     0.7720540556
Bq         1.8147948029     0.1452779658     0.8660170654
Bq         1.8437467090     0.1354509956     0.6683678363
Bq         1.8003188499     0.1501914508     0.9648416800
Bq         1.8582226620     0.1305375105     0.5695432217
Bq         1.7858428968     0.1551049359     1.0636662946
Bq         1.8726986151     0.1256240254     0.4707186071
Bq         1.7713669438     0.1600184210     1.1624909092
Bq         1.8871745681     0.1207105403     0.3718939925
Bq         1.7568909907     0.1649319061     1.2613155238
Bq         1.9016505212     0.1157970553     0.2730693779
Bq         1.8292707559     0.1403644807     0.7671924508
Bq         1.8155069368     0.2451571811     0.8611554607
Bq         1.8444588429     0.2353302110     0.6635062315
Bq         1.8010309838     0.2500706662     0.9599800752
Bq         1.8589347960     0.2304167259     0.5646816169
Bq         1.7865550308     0.2549841513     1.0588046898
Bq         1.8734107490     0.2255032408     0.4658570023
Bq         1.7720790777     0.2598976364     1.1576293044
Bq         1.8878867021     0.2205897557     0.3670323877
Bq         1.7576031247     0.2648111215     1.2564539190
Bq         1.9023626551     0.2156762706     0.2682077732
Bq         1.8299828899     0.2402436960     0.7623308461
Bq         1.8162190708     0.3450363965     0.8562938559
Bq         1.8451709769     0.3352094263     0.6586446267
Bq         1.8017431177     0.3499498816     0.9551184705
Bq         1.8596469299     0.3302959413     0.5598200121
Bq         1.7872671647     0.3548633667     1.0539430851
Bq         1.8741228830     0.3253824562     0.4609953976
Bq         1.7727912117     0.3597768518     1.1527676997
Bq         1.8885988360     0.3204689711     0.3621707830
Bq         1.7583152586     0.3646903368     1.2515923142
Bq         1.9030747891     0.3155554860     0.2633461684
Bq         1.8306950238     0.3401229114     0.7574692413
Bq         1.8169312047     0.4449156119     0.8514322511
Bq         1.8458831108     0.4350886417     0.6537830220
Bq         1.8024552517     0.4498290970     0.9502568657
Bq         1.8603590639     0.4301751566     0.5549584074

1
2
3
4
5
6
7
8
9
10
11
12
13
14
15
16
17
18
19
20
21
22
23
24
25
26
27
28
29
30
31
32
33
34
35
36
37
38
39
40
41
42
43
44
45
46
47
48
49
50
51
52
53
54
55
56
57
58
59
60
61
62
63
64
65
66
67
68
69
70
71
72
73
74
75
76
77
78
79
80
81
82
83
84
85
86
87
88
89
90
91
92
93
94
95
96
97
98
99
100
101
102
103
104
105
106
107
108
109
110
111
112
113
114
115
116
117
118
119
120
121
122
123
124
125
126
127
128
129
130
131
132
133
134
135
136
137
138
139
140
141
142
143
144
145
146
147
148
149
150
151
152
153
154
155
156
157
158
159
160
161
162
163
164
165
166
167
168
169
170
171
172
173
174
175
176
177
178
179
180
181
182
183
184
185
186
187
188
189
190
191
192
193
194
195
196
197
198
199
200
201
202
203
204
205
206
207
208
209
210
211
212
213
214
215
216
217
218
219
220
221
222
223
224
225
226
227
228
229
230
231
232
233
234
235
236

