%nproc=8
%mem=1000MB
# rb3lyp/6-311+g** NMR geom=connectivity

Title

0 1
C    -4.0500558   -0.5771862    0.8136712
H    -5.0263804   -1.0082727    1.0024760
C    -3.9381552    0.6617804    0.2400876
H    -4.8252424    1.2338890   -0.0111295
C    -2.6768410    1.2433246    0.0057578
C    -1.4974121    0.5051527    0.2848253
C    -1.6508332   -0.7338728    0.9404026
H    -0.7713646   -1.2730967    1.2633753
C    -2.8898548   -1.2624035    1.1994307
H    -2.9683706   -2.2124563    1.7152676
C    -2.5773185    2.5963696   -0.4192930
H    -3.4870728    3.1412239   -0.6474055
C    -1.3741895    3.2147896   -0.4364030
H    -1.2997315    4.2742019   -0.6578144
C    -0.1719488    2.4994090   -0.1734588
C    -0.2043917    1.1018437    0.0192689
C     1.0513491    3.2042560   -0.0676222
H     1.0427344    4.2819499   -0.1896997
C     2.1942091    2.5487446    0.2579577
H     3.1168527    3.0912848    0.4334727
C     2.2216473    1.1336562    0.2934990
C     1.0486931    0.3945528    0.0302412
C     3.4483363    0.4614633    0.5573939
H     4.3095794    1.0606054    0.8334846
C     3.5427346   -0.8855926    0.4749463
H     4.4731467   -1.3939704    0.7038822
C     2.4490052   -1.6474447   -0.0196319
C     1.2150704   -1.0057258   -0.3013573
C     0.2531113   -1.7434440   -1.0216591
H    -0.6541356   -1.2535051   -1.3462847
C     0.4494193   -3.0628597   -1.3413779
H    -0.3083162   -3.5944309   -1.9054060
C     1.6251726   -3.7207967   -0.9552541
H     1.7670048   -4.7687404   -1.1927019
C     2.6109872   -3.0144177   -0.3183050
H     3.5525612   -3.4902813   -0.0646367
Bq        -2.1832281143     1.2273467801     0.4214687055
Bq        -2.1842901010     1.3577949311     0.6916207961
Bq        -2.1828741187     1.1838640631     0.3314180086
Bq        -2.1846440966     1.4012776481     0.7816714930
Bq        -2.1825201231     1.1403813461     0.2413673117
Bq        -2.1849980921     1.4447603651     0.8717221899
Bq        -2.1821661276     1.0968986291     0.1513166148
Bq        -2.1853520877     1.4882430821     0.9617728868
Bq        -2.1818121320     1.0534159120     0.0612659179
Bq        -2.1835821098     1.2708294971     0.5115194023
Bq        -2.1837651731     1.4043636067     0.5580877182
Bq        -2.1830571820     1.3173981727     0.3779863244
Bq        -2.1841191687     1.4478463237     0.6481384151
Bq        -2.1827031864     1.2739154557     0.2879356275
Bq        -2.1844731643     1.4913290408     0.7381891120
Bq        -2.1823491909     1.2304327387     0.1978849307
Bq        -2.1848271599     1.5348117578     0.8282398088
Bq        -2.1819951953     1.1869500217     0.1078342338
Bq        -2.1851811554     1.5782944748     0.9182905057
Bq        -2.1816411997     1.1434673047     0.0177835369
Bq        -2.1834111776     1.3608808897     0.4680370213
Bq        -2.1835942409     1.4944149994     0.5146053372
Bq        -2.1828862497     1.4074495654     0.3345039434
Bq        -2.1839482364     1.5378977164     0.6046560340
Bq        -2.1825322542     1.3639668484     0.2444532465
Bq        -2.1843022320     1.5813804334     0.6947067309
Bq        -2.1821782586     1.3204841314     0.1544025496
Bq        -2.1846562276     1.6248631504     0.7847574278
Bq        -2.1818242630     1.2770014144     0.0643518527
Bq        -2.1850102232     1.6683458674     0.8748081247
Bq        -2.1814702674     1.2335186974    -0.0256988441
Bq        -2.1832402453     1.4509322824     0.4245546403
Bq        -2.1834233086     1.5844663921     0.4711229561
Bq        -2.1827153175     1.4975009581     0.2910215624
Bq        -2.1837773042     1.6279491091     0.5611736530
Bq        -2.1823613219     1.4540182411     0.2009708655
Bq        -2.1841312997     1.6714318261     0.6512243499
Bq        -2.1820073263     1.4105355241     0.1109201686
Bq        -2.1844852953     1.7149145431     0.7412750468
Bq        -2.1816533307     1.3670528071     0.0208694717
Bq        -2.1848392909     1.7583972601     0.8313257437
Bq        -2.1812993352     1.3235700901    -0.0691812252
Bq        -2.1830693130     1.5409836751     0.3810722592
Bq        -2.1832523763     1.6745177848     0.4276405751
Bq        -2.1825443852     1.5875523507     0.2475391813
Bq        -2.1836063719     1.7180005018     0.5176912720
Bq        -2.1821903896     1.5440696337     0.1574884844
Bq        -2.1839603675     1.7614832188     0.6077419689
Bq        -2.1818363940     1.5005869167     0.0674377876
Bq        -2.1843143630     1.8049659358     0.6977926657
Bq        -2.1814823985     1.4571041997    -0.0226129093
Bq        -2.1846683586     1.8484486528     0.7878433626
Bq        -2.1811284029     1.4136214827    -0.1126636062
Bq        -2.1828983807     1.6310350678     0.3375898782
Bq        -2.1830814440     1.7645691774     0.3841581941
Bq        -2.1823734529     1.6776037434     0.2040568003
Bq        -2.1834354396     1.8080518944     0.4742088909
Bq        -2.1820194573     1.6341210264     0.1140061034
Bq        -2.1837894352     1.8515346114     0.5642595878
Bq        -2.1816654618     1.5906383094     0.0239554065
Bq        -2.1841434308     1.8950173284     0.6543102847
Bq        -2.1813114662     1.5471555924    -0.0660952903
Bq        -2.1844974263     1.9385000454     0.7443609816
Bq        -2.1809574706     1.5036728754    -0.1561459872
Bq        -2.1827274485     1.7210864604     0.2941074972
Bq        -2.1829105118     1.8546205701     0.3406758130
Bq        -2.1822025206     1.7676551361     0.1605744193
Bq        -2.1832645073     1.8981032871     0.4307265099
Bq        -2.1818485251     1.7241724191     0.0705237224
Bq        -2.1836185029     1.9415860041     0.5207772068
Bq        -2.1814945295     1.6806897021    -0.0195269745
Bq        -2.1839724985     1.9850687211     0.6108279037
Bq        -2.1811405339     1.6372069851    -0.1095776714
Bq        -2.1843264941     2.0285514381     0.7008786006
Bq        -2.1807865383     1.5937242681    -0.1996283683
Bq        -2.1825565162     1.8111378531     0.2506251161
Bq        -2.1827395795     1.9446719628     0.2971934320
Bq        -2.1820315884     1.8577065288     0.1170920382
Bq        -2.1830935751     1.9881546798     0.3872441289
Bq        -2.1816775928     1.8142238118     0.0270413414
Bq        -2.1834475706     2.0316373968     0.4772948258
Bq        -2.1813235972     1.7707410947    -0.0630093555
Bq        -2.1838015662     2.0751201138     0.5673455226
Bq        -2.1809696016     1.7272583777    -0.1530600524
Bq        -2.1841555618     2.1186028308     0.6573962195
Bq        -2.1806156061     1.6837756607    -0.2431107493
Bq        -2.1823855839     1.9011892458     0.2071427351
Bq        -2.1825686472     2.0347233554     0.2537110510
Bq        -2.1818606561     1.9477579214     0.0736096572
Bq        -2.1829226428     2.0782060724     0.3437617478
Bq        -2.1815066605     1.9042752044    -0.0164410397
Bq        -2.1832766384     2.1216887894     0.4338124447
Bq        -2.1811526649     1.8607924874    -0.1064917366
Bq        -2.1836306339     2.1651715065     0.5238631416
Bq        -2.1807986694     1.8173097704    -0.1965424334
Bq        -2.1839846295     2.2086542235     0.6139138385
Bq        -2.1804446738     1.7738270534    -0.2865931303
Bq        -2.1822146517     1.9912406384     0.1636603541
Bq        -2.1823977150     2.1247747481     0.2102286699
Bq        -2.1816897238     2.0378093141     0.0301272762
Bq        -2.1827517105     2.1682574651     0.3002793668
Bq        -2.1813357282     1.9943265971    -0.0599234207
Bq        -2.1831057061     2.2117401821     0.3903300637
Bq        -2.1809817327     1.9508438801    -0.1499741176
Bq        -2.1834597017     2.2552228991     0.4803807606
Bq        -2.1806277371     1.9073611631    -0.2400248145
Bq        -2.1838136972     2.2987056161     0.5704314575
Bq        -2.1802737415     1.8638784461    -0.3300755114
Bq        -2.1820437194     2.0812920311     0.1201779731
Bq        -2.1822267827     2.2148261408     0.1667462889
Bq        -2.1815187915     2.1278607068    -0.0133551049
Bq        -2.1825807783     2.2583088578     0.2567969858
Bq        -2.1811647960     2.0843779898    -0.1034058017
Bq        -2.1829347738     2.3017915748     0.3468476827
Bq        -2.1808108004     2.0408952728    -0.1934564986
Bq        -2.1832887694     2.3452742918     0.4368983795
Bq        -2.1804568048     1.9974125558    -0.2835071955
Bq        -2.1836427650     2.3887570088     0.5269490764
Bq        -2.1801028092     1.9539298388    -0.3735578924
Bq        -2.1818727871     2.1713434238     0.0766955920
Bq        -2.1820558504     2.3048775334     0.1232639079
Bq        -2.1813478593     2.2179120994    -0.0568374859
Bq        -2.1824098460     2.3483602505     0.2133146048
Bq        -2.1809938637     2.1744293824    -0.1468881828
Bq        -2.1827638416     2.3918429675     0.3033653016
Bq        -2.1806398681     2.1309466654    -0.2369388797
Bq        -2.1831178371     2.4353256845     0.3934159985
Bq        -2.1802858725     2.0874639484    -0.3269895765
Bq        -2.1834718327     2.4788084015     0.4834666954
Bq        -2.1799318770     2.0439812314    -0.4170402734
Bq        -2.1817018548     2.2613948164     0.0332132110
Bq        -2.1818849181     2.3949289261     0.0797815268
Bq        -2.1811769270     2.3079634921    -0.1003198669
Bq        -2.1822389137     2.4384116431     0.1698322237
Bq        -2.1808229314     2.2644807751    -0.1903705638
Bq        -2.1825929093     2.4818943601     0.2598829206
Bq        -2.1804689358     2.2209980581    -0.2804212607
Bq        -2.1829469049     2.5253770771     0.3499336175
Bq        -2.1801149403     2.1775153411    -0.3704719576
Bq        -2.1833009004     2.5688597941     0.4399843144
Bq        -2.1797609447     2.1340326241    -0.4605226545
Bq        -2.1815309226     2.3514462091    -0.0102691700
Bq        -2.1817139859     2.4849803188     0.0362991458
Bq        -2.1810059947     2.3980148848    -0.1438022480
Bq        -2.1820679814     2.5284630358     0.1263498427
Bq        -2.1806519991     2.3545321678    -0.2338529448
Bq        -2.1824219770     2.5719457528     0.2164005396
Bq        -2.1802980036     2.3110494508    -0.3239036417
Bq        -2.1827759726     2.6154284698     0.3064512365
Bq        -2.1799440080     2.2675667338    -0.4139543386
Bq        -2.1831299682     2.6589111868     0.3965019333
Bq        -2.1795900124     2.2240840168    -0.5040050355
Bq        -2.1813599903     2.4414976018    -0.0537515511
Bq        -2.0902613722    -2.0175893147     2.2108113014
Bq        -2.0895533811    -2.1045547487     2.0307099076
Bq        -2.0906153678    -1.9741065977     2.3008619983
Bq        -2.0891993855    -2.1480374658     1.9406592107
Bq        -2.0909693634    -1.9306238807     2.3909126951
Bq        -2.0888453899    -2.1915201828     1.8506085138
Bq        -2.0913233590    -1.8871411637     2.4809633920
Bq        -2.0884913944    -2.2350028998     1.7605578170
Bq        -2.0916773545    -1.8436584467     2.5710140889
Bq        -2.0881373988    -2.2784856168     1.6705071201
Bq        -2.0899073767    -2.0610720317     2.1207606045
Bq        -2.0900904400    -1.9275379221     2.1673289203
Bq        -2.0893824488    -2.0145033561     1.9872275266
Bq        -2.0904444355    -1.8840552051     2.2573796172
Bq        -2.0890284532    -2.0579860731     1.8971768297
Bq        -2.0907984311    -1.8405724881     2.3474303141
Bq        -2.0886744577    -2.1014687901     1.8071261328
Bq        -2.0911524267    -1.7970897711     2.4374810110
Bq        -2.0883204621    -2.1449515071     1.7170754359
Bq        -2.0915064223    -1.7536070540     2.5275317079
Bq        -2.0879664665    -2.1884342241     1.6270247390
Bq        -2.0897364444    -1.9710206391     2.0772782235
Bq        -2.0899195077    -1.8374865294     2.1238465393
Bq        -2.0892115165    -1.9244519634     1.9437451455
Bq        -2.0902735033    -1.7940038124     2.2138972362
Bq        -2.0888575210    -1.9679346804     1.8536944487
Bq        -2.0906274988    -1.7505210954     2.3039479331
Bq        -2.0885035254    -2.0114173974     1.7636437518
Bq        -2.0909814944    -1.7070383784     2.3939986300
Bq        -2.0881495298    -2.0549001144     1.6735930549
Bq        -2.0913354900    -1.6635556614     2.4840493268
Bq        -2.0877955342    -2.0983828314     1.5835423580
Bq        -2.0895655121    -1.8809692464     2.0337958424
Bq        -2.0897485754    -1.7474351367     2.0803641583
Bq        -2.0890405843    -1.8344005707     1.9002627645
Bq        -2.0901025710    -1.7039524197     2.1704148552
Bq        -2.0886865887    -1.8778832877     1.8102120676
Bq        -2.0904565666    -1.6604697027     2.2604655520
Bq        -2.0883325931    -1.9213660047     1.7201613707
Bq        -2.0908105621    -1.6169869857     2.3505162489
Bq        -2.0879785975    -1.9648487217     1.6301106739
Bq        -2.0911645577    -1.5735042687     2.4405669458
Bq        -2.0876246020    -2.0083314388     1.5400599770
Bq        -2.0893945798    -1.7909178537     1.9903134614
Bq        -2.0895776431    -1.6573837441     2.0368817772
Bq        -2.0888696520    -1.7443491781     1.8567803835
Bq        -2.0899316387    -1.6139010270     2.1269324741

1
2
3
4
5
6
7
8
9
10
11
12
13
14
15
16
17
18
19
20
21
22
23
24
25
26
27
28
29
30
31
32
33
34
35
36
37
38
39
40
41
42
43
44
45
46
47
48
49
50
51
52
53
54
55
56
57
58
59
60
61
62
63
64
65
66
67
68
69
70
71
72
73
74
75
76
77
78
79
80
81
82
83
84
85
86
87
88
89
90
91
92
93
94
95
96
97
98
99
100
101
102
103
104
105
106
107
108
109
110
111
112
113
114
115
116
117
118
119
120
121
122
123
124
125
126
127
128
129
130
131
132
133
134
135
136
137
138
139
140
141
142
143
144
145
146
147
148
149
150
151
152
153
154
155
156
157
158
159
160
161
162
163
164
165
166
167
168
169
170
171
172
173
174
175
176
177
178
179
180
181
182
183
184
185
186
187
188
189
190
191
192
193
194
195
196
197
198
199
200
201
202
203
204
205
206
207
208
209
210
211
212
213
214
215
216
217
218
219
220
221
222
223
224
225
226
227
228
229
230
231
232
233
234
235
236

