%nproc=8
%mem=1000MB
# rb3lyp/6-311+g** NMR geom=connectivity

Title

0 1
C    -4.0500558   -0.5771862    0.8136712
H    -5.0263804   -1.0082727    1.0024760
C    -3.9381552    0.6617804    0.2400876
H    -4.8252424    1.2338890   -0.0111295
C    -2.6768410    1.2433246    0.0057578
C    -1.4974121    0.5051527    0.2848253
C    -1.6508332   -0.7338728    0.9404026
H    -0.7713646   -1.2730967    1.2633753
C    -2.8898548   -1.2624035    1.1994307
H    -2.9683706   -2.2124563    1.7152676
C    -2.5773185    2.5963696   -0.4192930
H    -3.4870728    3.1412239   -0.6474055
C    -1.3741895    3.2147896   -0.4364030
H    -1.2997315    4.2742019   -0.6578144
C    -0.1719488    2.4994090   -0.1734588
C    -0.2043917    1.1018437    0.0192689
C     1.0513491    3.2042560   -0.0676222
H     1.0427344    4.2819499   -0.1896997
C     2.1942091    2.5487446    0.2579577
H     3.1168527    3.0912848    0.4334727
C     2.2216473    1.1336562    0.2934990
C     1.0486931    0.3945528    0.0302412
C     3.4483363    0.4614633    0.5573939
H     4.3095794    1.0606054    0.8334846
C     3.5427346   -0.8855926    0.4749463
H     4.4731467   -1.3939704    0.7038822
C     2.4490052   -1.6474447   -0.0196319
C     1.2150704   -1.0057258   -0.3013573
C     0.2531113   -1.7434440   -1.0216591
H    -0.6541356   -1.2535051   -1.3462847
C     0.4494193   -3.0628597   -1.3413779
H    -0.3083162   -3.5944309   -1.9054060
C     1.6251726   -3.7207967   -0.9552541
H     1.7670048   -4.7687404   -1.1927019
C     2.6109872   -3.0144177   -0.3183050
H     3.5525612   -3.4902813   -0.0646367
Bq         2.9048734835    -4.6993522619     0.2123963273
Bq         3.1440440663    -4.5396583552    -0.3141920210
Bq         2.8650117198    -4.7259679130     0.3001610520
Bq         3.1839058301    -4.5130427041    -0.4019567457
Bq         2.8251499560    -4.7525835641     0.3879257767
Bq         3.2237675938    -4.4864270530    -0.4897214704
Bq         3.0244587749    -4.6195053085    -0.0508978468
Bq         2.9735905378    -4.5497279769     0.0611001283
Bq         3.0533140653    -4.4964966747    -0.1144293211
Bq         2.9337287740    -4.5763436280     0.1488648531
Bq         3.0931758291    -4.4698810236    -0.2021940458
Bq         2.8938670102    -4.6029592791     0.2366295778
Bq         3.1330375929    -4.4432653725    -0.2899587705
Bq         2.8540052464    -4.6295749303     0.3243943025
Bq         3.1728993567    -4.4166497214    -0.3777234952
Bq         2.8141434826    -4.6561905814     0.4121590272
Bq         3.2127611205    -4.3900340703    -0.4654882199
Bq         3.0134523015    -4.5231123258    -0.0266645964
Bq         2.9625840644    -4.4533349942     0.0853333788
Bq         3.0423075920    -4.4001036920    -0.0901960706
Bq         2.9227223006    -4.4799506453     0.1730981035
Bq         3.0821693557    -4.3734880409    -0.1779607953
Bq         2.8828605368    -4.5065662964     0.2608628282
Bq         3.1220311195    -4.3468723898    -0.2657255201
Bq         2.8429987730    -4.5331819475     0.3486275529
Bq         3.1618928833    -4.3202567387    -0.3534902448
Bq         2.8031370092    -4.5597975986     0.4363922776
Bq         3.2017546471    -4.2936410876    -0.4412549695
Bq         3.0024458282    -4.4267193431    -0.0024313459
Bq         2.9515775910    -4.3569420115     0.1095666293
Bq         3.0313011186    -4.3037107093    -0.0659628202
Bq         2.9117158272    -4.3835576626     0.1973313540
Bq         3.0711628824    -4.2770950582    -0.1537275449
Bq         2.8718540634    -4.4101733137     0.2850960787
Bq         3.1110246462    -4.2504794071    -0.2414922696
Bq         2.8319922996    -4.4367889648     0.3728608034
Bq         3.1508864099    -4.2238637560    -0.3292569943
Bq         2.7921305359    -4.4634046159     0.4606255281
Bq         3.1907481737    -4.1972481049    -0.4170217190
Bq         2.9914393548    -4.3303263604     0.0218019045
Bq         2.9405711176    -4.2605490288     0.1337998797
Bq         3.0202946452    -4.2073177266    -0.0417295697
Bq         2.9007093538    -4.2871646799     0.2215646044
Bq         3.0601564090    -4.1807020755    -0.1294942944
Bq         2.8608475901    -4.3137803310     0.3093293291
Bq         3.1000181728    -4.1540864244    -0.2172590191
Bq         2.8209858263    -4.3403959821     0.3970940539
Bq         3.1398799366    -4.1274707733    -0.3050237438
Bq         2.7811240625    -4.3670116332     0.4848587786
Bq         3.1797417004    -4.1008551222    -0.3927884686
Bq         2.9804328814    -4.2339333777     0.0460351550
Bq         2.9295646443    -4.1641560461     0.1580331302
Bq         3.0092881718    -4.1109247439    -0.0174963193
Bq         2.8897028805    -4.1907716972     0.2457978549
Bq         3.0491499356    -4.0843090928    -0.1052610440
Bq         2.8498411167    -4.2173873483     0.3335625796
Bq         3.0890116994    -4.0576934417    -0.1930257687
Bq         2.8099793529    -4.2440029994     0.4213273043
Bq         3.1288734632    -4.0310777905    -0.2807904934
Bq         2.7701175891    -4.2706186505     0.5090920290
Bq         3.1687352270    -4.0044621394    -0.3685552181
Bq         2.9694264081    -4.1375403950     0.0702684055
Bq         2.9185581709    -4.0677630634     0.1822663806
Bq         2.9982816985    -4.0145317612     0.0067369312
Bq         2.8786964071    -4.0943787145     0.2700311053
Bq         3.0381434623    -3.9879161100    -0.0810277935
Bq         2.8388346433    -4.1209943656     0.3577958301
Bq         3.0780052260    -3.9613004589    -0.1687925182
Bq         2.7989728795    -4.1476100167     0.4455605548
Bq         3.1178669898    -3.9346848078    -0.2565572429
Bq         2.7591111157    -4.1742256678     0.5333252795
Bq         3.1577287536    -3.9080691567    -0.3443219676
Bq         2.9584199347    -4.0411474123     0.0945016559
Bq         2.9075516975    -3.9713700807     0.2064996311
Bq         2.9872752251    -3.9181387784     0.0309701817
Bq         2.8676899337    -3.9979857318     0.2942643558
Bq         3.0271369889    -3.8915231273    -0.0567945430
Bq         2.8278281699    -4.0246013829     0.3820290805
Bq         3.0669987527    -3.8649074762    -0.1445592678
Bq         2.7879664062    -4.0512170340     0.4697938052
Bq         3.1068605165    -3.8382918251    -0.2323239925
Bq         2.7481046424    -4.0778326851     0.5575585299
Bq         3.1467222802    -3.8116761740    -0.3200887172
Bq         2.9474134613    -3.9447544296     0.1187349064
Bq         2.8965452241    -3.8749770979     0.2307328815
Bq         2.9762687517    -3.8217457957     0.0552034321
Bq         2.8566834604    -3.9015927491     0.3184976063
Bq         3.0161305155    -3.7951301446    -0.0325612926
Bq         2.8168216966    -3.9282084002     0.4062623310
Bq         3.0559922793    -3.7685144935    -0.1203260173
Bq         2.7769599328    -3.9548240513     0.4940270557
Bq         3.0958540431    -3.7418988424    -0.2080907420
Bq         2.7370981690    -3.9814397024     0.5817917804
Bq         3.1357158069    -3.7152831913    -0.2958554667
Bq         2.9364069879    -3.8483614468     0.1429681568
Bq         2.8855387508    -3.7785841152     0.2549661320
Bq         2.9652622784    -3.7253528130     0.0794366826
Bq         2.8456769870    -3.8051997663     0.3427308567
Bq         3.0051240421    -3.6987371619    -0.0083280421
Bq         2.8058152232    -3.8318154174     0.4304955814
Bq         3.0449858059    -3.6721215108    -0.0960927668
Bq         2.7659534594    -3.8584310686     0.5182603061
Bq         3.0848475697    -3.6455058597    -0.1838574916
Bq         2.7260916956    -3.8850467197     0.6060250309
Bq         3.1247093335    -3.6188902086    -0.2716222163
Bq         2.9254005146    -3.7519684641     0.1672014073
Bq         2.8745322774    -3.6821911325     0.2791993825
Bq         2.9542558050    -3.6289598303     0.1036699330
Bq         2.8346705136    -3.7088067836     0.3669641072
Bq         2.9941175688    -3.6023441792     0.0159052083
Bq         2.7948087498    -3.7354224347     0.4547288319
Bq         3.0339793326    -3.5757285281    -0.0718595164
Bq         2.7549469860    -3.7620380858     0.5424935566
Bq         3.0738410963    -3.5491128770    -0.1596242411
Bq         2.7150852223    -3.7886537369     0.6302582813
Bq         3.1137028601    -3.5224972259    -0.2473889658
Bq         2.9143940412    -3.6555754814     0.1914346577
Bq         2.8635258040    -3.5857981498     0.3034326329
Bq         2.9432493316    -3.5325668476     0.1279031835
Bq         2.8236640402    -3.6124138009     0.3911973576
Bq         2.9831110954    -3.5059511965     0.0401384588
Bq         2.7838022765    -3.6390294520     0.4789620823
Bq         3.0229728592    -3.4793355454    -0.0476262659
Bq         2.7439405127    -3.6656451031     0.5667268071
Bq         3.0628346230    -3.4527198943    -0.1353909906
Bq         2.7040787489    -3.6922607542     0.6544915318
Bq         3.1026963868    -3.4261042432    -0.2231557154
Bq         2.9033875678    -3.5591824987     0.2156679082
Bq         2.8525193307    -3.4894051671     0.3276658834
Bq         2.9322428582    -3.4361738649     0.1521364340
Bq         2.8126575669    -3.5160208182     0.4154306081
Bq         2.9721046220    -3.4095582138     0.0643717092
Bq         2.7727958031    -3.5426364693     0.5031953328
Bq         3.0119663858    -3.3829425627    -0.0233930155
Bq         2.7329340393    -3.5692521204     0.5909600575
Bq         3.0518281496    -3.3563269116    -0.1111577402
Bq         2.6930722755    -3.5958677715     0.6787247822
Bq         3.0916899134    -3.3297112605    -0.1989224649
Bq         2.8923810944    -3.4627895160     0.2399011587
Bq         2.8415128573    -3.3930121844     0.3518991338
Bq         2.9212363849    -3.3397808822     0.1763696844
Bq         2.8016510935    -3.4196278355     0.4396638585
Bq         2.9610981486    -3.3131652311     0.0886049597
Bq         2.7617893297    -3.4462434866     0.5274285833
Bq         3.0009599124    -3.2865495800     0.0008402350
Bq         2.7219275659    -3.4728591377     0.6151933080
Bq         3.0408216762    -3.2599339288    -0.0869244897
Bq         2.6820658021    -3.4994747888     0.7029580327
Bq         3.0806834400    -3.2333182777    -0.1746892144
Bq         2.8813746211    -3.3663965333     0.2641344091
Bq         2.8305063839    -3.2966192017     0.3761323843
Bq         2.9102299115    -3.2433878995     0.2006029349
Bq         2.7906446201    -3.3232348528     0.4638971090
Bq         2.9500916753    -3.2167722484     0.1128382102
Bq         2.7507828563    -3.3498505039     0.5516618337
Bq         2.9899534391    -3.1901565972     0.0250734854
Bq         2.7109210926    -3.3764661550     0.6394265584
Bq         3.0298152029    -3.1635409461    -0.0626912393
Bq         2.6710593288    -3.4030818061     0.7271912831
Bq         3.0696769666    -3.1369252950    -0.1504559640
Bq         2.8703681477    -3.2700035506     0.2883676596
Bq         2.8194999105    -3.2002262190     0.4003656348
Bq         2.8992234381    -3.1469949167     0.2248361853
Bq         2.7796381468    -3.2268418701     0.4881303595
Bq         2.9390852019    -3.1203792656     0.1370714606
Bq         2.7397763830    -3.2534575212     0.5758950842
Bq         2.9789469657    -3.0937636145     0.0493067359
Bq         2.6999146192    -3.2800731723     0.6636598089
Bq         3.0188087295    -3.0671479634    -0.0384579888
Bq         2.6600528554    -3.3066888234     0.7514245336
Bq         3.0586704933    -3.0405323123    -0.1262227135
Bq         2.8593616743    -3.1736105679     0.3126009100
Bq         2.8084934372    -3.1038332362     0.4245988852
Bq         2.8882169647    -3.0506019340     0.2490694358
Bq         2.7686316734    -3.1304488874     0.5123636099
Bq         2.9280787285    -3.0239862829     0.1613047111
Bq         2.7287699096    -3.1570645385     0.6001283346
Bq         2.9679404923    -2.9973706318     0.0735399864
Bq         2.6889081458    -3.1836801896     0.6878930593
Bq         3.0078022561    -2.9707549807    -0.0142247384
Bq         2.6490463820    -3.2102958407     0.7756577841
Bq         3.0476640199    -2.9441393296    -0.1019894631
Bq         2.8483552010    -3.0772175851     0.3368341605
Bq         2.7974869638    -3.0074402535     0.4488321357
Bq         2.8772104914    -2.9542089513     0.2733026862
Bq         2.7576252000    -3.0340559046     0.5365968604
Bq         2.9170722552    -2.9275933002     0.1855379615
Bq         2.7177634362    -3.0606715558     0.6243615851
Bq         2.9569340189    -2.9009776491     0.0977732368
Bq         2.6779016724    -3.0872872069     0.7121263098
Bq         2.9967957827    -2.8743619980     0.0100085121
Bq         2.6380399086    -3.1139028580     0.7998910345
Bq         3.0366575465    -2.8477463469    -0.0777562126
Bq         2.8373487276    -2.9808246024     0.3610674110
Bq         2.7864804904    -2.9110472708     0.4730653861
Bq         2.8662040180    -2.8578159686     0.2975359367
Bq         2.7466187266    -2.9376629219     0.5608301108
Bq         2.9060657818    -2.8312003175     0.2097712120
Bq         2.7067569629    -2.9642785730     0.6485948356
Bq         2.9459275456    -2.8045846664     0.1220064873

1
2
3
4
5
6
7
8
9
10
11
12
13
14
15
16
17
18
19
20
21
22
23
24
25
26
27
28
29
30
31
32
33
34
35
36
37
38
39
40
41
42
43
44
45
46
47
48
49
50
51
52
53
54
55
56
57
58
59
60
61
62
63
64
65
66
67
68
69
70
71
72
73
74
75
76
77
78
79
80
81
82
83
84
85
86
87
88
89
90
91
92
93
94
95
96
97
98
99
100
101
102
103
104
105
106
107
108
109
110
111
112
113
114
115
116
117
118
119
120
121
122
123
124
125
126
127
128
129
130
131
132
133
134
135
136
137
138
139
140
141
142
143
144
145
146
147
148
149
150
151
152
153
154
155
156
157
158
159
160
161
162
163
164
165
166
167
168
169
170
171
172
173
174
175
176
177
178
179
180
181
182
183
184
185
186
187
188
189
190
191
192
193
194
195
196
197
198
199
200
201
202
203
204
205
206
207
208
209
210
211
212
213
214
215
216
217
218
219
220
221
222
223
224
225
226
227
228
229
230
231
232
233
234
235
236

