%nproc=8
%mem=1000MB
# rb3lyp/6-311+g** NMR geom=connectivity

Title

0 1
C    -4.0500558   -0.5771862    0.8136712
H    -5.0263804   -1.0082727    1.0024760
C    -3.9381552    0.6617804    0.2400876
H    -4.8252424    1.2338890   -0.0111295
C    -2.6768410    1.2433246    0.0057578
C    -1.4974121    0.5051527    0.2848253
C    -1.6508332   -0.7338728    0.9404026
H    -0.7713646   -1.2730967    1.2633753
C    -2.8898548   -1.2624035    1.1994307
H    -2.9683706   -2.2124563    1.7152676
C    -2.5773185    2.5963696   -0.4192930
H    -3.4870728    3.1412239   -0.6474055
C    -1.3741895    3.2147896   -0.4364030
H    -1.2997315    4.2742019   -0.6578144
C    -0.1719488    2.4994090   -0.1734588
C    -0.2043917    1.1018437    0.0192689
C     1.0513491    3.2042560   -0.0676222
H     1.0427344    4.2819499   -0.1896997
C     2.1942091    2.5487446    0.2579577
H     3.1168527    3.0912848    0.4334727
C     2.2216473    1.1336562    0.2934990
C     1.0486931    0.3945528    0.0302412
C     3.4483363    0.4614633    0.5573939
H     4.3095794    1.0606054    0.8334846
C     3.5427346   -0.8855926    0.4749463
H     4.4731467   -1.3939704    0.7038822
C     2.4490052   -1.6474447   -0.0196319
C     1.2150704   -1.0057258   -0.3013573
C     0.2531113   -1.7434440   -1.0216591
H    -0.6541356   -1.2535051   -1.3462847
C     0.4494193   -3.0628597   -1.3413779
H    -0.3083162   -3.5944309   -1.9054060
C     1.6251726   -3.7207967   -0.9552541
H     1.7670048   -4.7687404   -1.1927019
C     2.6109872   -3.0144177   -0.3183050
H     3.5525612   -3.4902813   -0.0646367
Bq         1.6124741411    -0.5112923247     1.1233616959
Bq         2.0110917790    -0.2451358137     0.2457144487
Bq         1.8117829600    -0.3782140692     0.6845380723
Bq         1.7609147229    -0.3084367376     0.7965360475
Bq         1.8406382504    -0.2552054354     0.6210065980
Bq         1.7210529591    -0.3350523887     0.8843007722
Bq         1.8805000142    -0.2285897843     0.5332418733
Bq         1.6811911953    -0.3616680398     0.9720654969
Bq         1.9203617780    -0.2019741332     0.4454771486
Bq         1.6413294315    -0.3882836909     1.0598302216
Bq         1.9602235418    -0.1753584821     0.3577124239
Bq         1.6014676677    -0.4148993420     1.1475949463
Bq         2.0000853056    -0.1487428310     0.2699476992
Bq         1.8007764867    -0.2818210865     0.7087713228
Bq         1.7499082495    -0.2120437549     0.8207692979
Bq         1.8296317771    -0.1588124527     0.6452398485
Bq         1.7100464857    -0.2386594060     0.9085340226
Bq         1.8694935409    -0.1321968016     0.5574751238
Bq         1.6701847219    -0.2652750571     0.9962987473
Bq         1.9093553046    -0.1055811505     0.4697103991
Bq         1.6303229581    -0.2918907082     1.0840634721
Bq         1.9492170684    -0.0789654993     0.3819456744
Bq         1.5904611943    -0.3185063593     1.1718281968
Bq         1.9890788322    -0.0523498482     0.2941809496
Bq         1.7897700133    -0.1854281038     0.7330045732
Bq         1.7389017761    -0.1156507722     0.8450025484
Bq         1.8186253037    -0.0624194700     0.6694730990
Bq         1.6990400123    -0.1422664233     0.9327672731
Bq         1.8584870675    -0.0358038189     0.5817083742
Bq         1.6591782486    -0.1688820744     1.0205319978
Bq         1.8983488313    -0.0091881677     0.4939436495
Bq         1.6193164848    -0.1954977255     1.1082967225
Bq         1.9382105951     0.0174274834     0.4061789248
Bq         1.5794547210    -0.2221133766     1.1960614472
Bq         1.9780723589     0.0440431345     0.3184142001
Bq         1.7787635399    -0.0890351211     0.7572378237
Bq         2.3802743180    -4.9352999078    -0.3253065869
Bq         2.4599978456    -4.8820686056    -0.5008360363
Bq         2.3404125543    -4.9619155589    -0.2375418622
Bq         2.4998596094    -4.8554529545    -0.5886007610
Bq         2.3005507905    -4.9885312100    -0.1497771375
Bq         2.5397213732    -4.8288373034    -0.6763654857
Bq         2.2606890267    -5.0151468611    -0.0620124128
Bq         2.5795831370    -4.8022216522    -0.7641302105
Bq         2.2208272629    -5.0417625122     0.0257523120
Bq         2.6194449008    -4.7756060011    -0.8518949352
Bq         2.4201360818    -4.9086842567    -0.4130713116
Bq         2.3692678447    -4.8389069251    -0.3010733364
Bq         2.4489913722    -4.7856756229    -0.4766027859
Bq         2.3294060809    -4.8655225762    -0.2133086117
Bq         2.4888531360    -4.7590599717    -0.5643675106
Bq         2.2895443171    -4.8921382273    -0.1255438870
Bq         2.5287148998    -4.7324443206    -0.6521322353
Bq         2.2496825533    -4.9187538784    -0.0377791623
Bq         2.5685766636    -4.7058286695    -0.7398969600
Bq         2.2098207895    -4.9453695295     0.0499855624
Bq         2.6084384274    -4.6792130184    -0.8276616847
Bq         2.4091296085    -4.8122912740    -0.3888380611
Bq         2.3582613713    -4.7425139424    -0.2768400860
Bq         2.4379848989    -4.6892826401    -0.4523695354
Bq         2.3183996075    -4.7691295935    -0.1890753613
Bq         2.4778466627    -4.6626669890    -0.5401342601
Bq         2.2785378437    -4.7957452446    -0.1013106365
Bq         2.5177084265    -4.6360513379    -0.6278989848
Bq         2.2386760799    -4.8223608957    -0.0135459118
Bq         2.5575701902    -4.6094356868    -0.7156637095
Bq         2.1988143162    -4.8489765468     0.0742188129
Bq         2.5974319540    -4.5828200357    -0.8034284343
Bq         2.3981231351    -4.7158982912    -0.3646048107
Bq         2.3472548979    -4.6461209596    -0.2526068355
Bq         2.4269784255    -4.5928896574    -0.4281362849
Bq         2.3073931341    -4.6727366108    -0.1648421108
Bq         2.4668401893    -4.5662740063    -0.5159010097
Bq         2.2675313704    -4.6993522619    -0.0770773861
Bq         2.5067019531    -4.5396583552    -0.6036657344
Bq         2.2276696066    -4.7259679130     0.0106873386
Bq         2.5465637169    -4.5130427041    -0.6914304591
Bq         2.1878078428    -4.7525835641     0.0984520633
Bq         2.5864254807    -4.4864270530    -0.7791951838
Bq         2.3871166617    -4.6195053085    -0.3403715602
Bq         2.3362484246    -4.5497279769    -0.2283735851
Bq         2.4159719521    -4.4964966747    -0.4039030345
Bq         2.2963866608    -4.5763436280    -0.1406088603
Bq         2.4558337159    -4.4698810236    -0.4916677592
Bq         2.2565248970    -4.6029592791    -0.0528441356
Bq         2.4956954797    -4.4432653725    -0.5794324839
Bq         2.2166631332    -4.6295749303     0.0349205891
Bq         2.5355572435    -4.4166497214    -0.6671972086
Bq         2.1768013694    -4.6561905814     0.1226853138
Bq         2.5754190073    -4.3900340703    -0.7549619333
Bq         2.3761101883    -4.5231123258    -0.3161383098
Bq         2.3252419512    -4.4533349942    -0.2041403346
Bq         2.4049654788    -4.4001036920    -0.3796697840
Bq         2.2853801874    -4.4799506453    -0.1163756099
Bq         2.4448272425    -4.3734880409    -0.4674345087
Bq         2.2455184236    -4.5065662964    -0.0286108852
Bq         2.4846890063    -4.3468723898    -0.5551992335
Bq         2.2056566598    -4.5331819475     0.0591538395
Bq         2.5245507701    -4.3202567387    -0.6429639582
Bq         2.1657948960    -4.5597975986     0.1469185643
Bq         2.5644125339    -4.2936410876    -0.7307286829
Bq         2.3651037150    -4.4267193431    -0.2919050593
Bq         2.3142354778    -4.3569420115    -0.1799070841
Bq         2.3939590054    -4.3037107093    -0.3554365336
Bq         2.2743737140    -4.3835576626    -0.0921423594
Bq         2.4338207692    -4.2770950582    -0.4432012583
Bq         2.2345119502    -4.4101733137    -0.0043776347
Bq         2.4736825330    -4.2504794071    -0.5309659830
Bq         2.1946501865    -4.4367889648     0.0833870900
Bq         2.5135442968    -4.2238637560    -0.6187307077
Bq         2.1547884227    -4.4634046159     0.1711518147
Bq         2.5534060605    -4.1972481049    -0.7064954324
Bq         2.3540972416    -4.3303263604    -0.2676718089
Bq         2.3032290044    -4.2605490288    -0.1556738337
Bq         2.3829525320    -4.2073177266    -0.3312032831
Bq         2.2633672407    -4.2871646799    -0.0679091090
Bq         2.4228142958    -4.1807020755    -0.4189680078
Bq         2.2235054769    -4.3137803310     0.0198556157
Bq         2.4626760596    -4.1540864244    -0.5067327325
Bq         2.1836437131    -4.3403959821     0.1076203405
Bq         2.5025378234    -4.1274707733    -0.5944974572
Bq         2.1437819493    -4.3670116332     0.1953850652
Bq         2.5423995872    -4.1008551222    -0.6822621820
Bq         2.3430907682    -4.2339333777    -0.2434385584
Bq         2.2922225311    -4.1641560461    -0.1314405832
Bq         2.3719460586    -4.1109247439    -0.3069700327
Bq         2.2523607673    -4.1907716972    -0.0436758585
Bq         2.4118078224    -4.0843090928    -0.3947347574
Bq         2.2124990035    -4.2173873483     0.0440888662
Bq         2.4516695862    -4.0576934417    -0.4824994821
Bq         2.1726372397    -4.2440029994     0.1318535909
Bq         2.4915313500    -4.0310777905    -0.5702642068
Bq         2.1327754759    -4.2706186505     0.2196183156
Bq         2.5313931138    -4.0044621394    -0.6580289315
Bq         2.3320842949    -4.1375403950    -0.2192053079
Bq         2.2812160577    -4.0677630634    -0.1072073328
Bq         2.3609395853    -4.0145317612    -0.2827367822
Bq         2.2413542939    -4.0943787145    -0.0194426081
Bq         2.4008013491    -3.9879161100    -0.3705015069
Bq         2.2014925301    -4.1209943656     0.0683221167
Bq         2.4406631128    -3.9613004589    -0.4582662316
Bq         2.1616307663    -4.1476100167     0.1560868414
Bq         2.4805248766    -3.9346848078    -0.5460309563
Bq         2.1217690025    -4.1742256678     0.2438515661
Bq         2.5203866404    -3.9080691567    -0.6337956810
Bq         2.3210778215    -4.0411474123    -0.1949720575
Bq         2.2702095843    -3.9713700807    -0.0829740823
Bq         2.3499331119    -3.9181387784    -0.2585035317
Bq         2.2303478205    -3.9979857318     0.0047906424
Bq         2.3897948757    -3.8915231273    -0.3462682564
Bq         2.1904860567    -4.0246013829     0.0925553671
Bq         2.4296566395    -3.8649074762    -0.4340329812
Bq         2.1506242930    -4.0512170340     0.1803200918
Bq         2.4695184033    -3.8382918251    -0.5217977059
Bq         2.1107625292    -4.0778326851     0.2680848165
Bq         2.5093801670    -3.8116761740    -0.6095624306
Bq         2.3100713481    -3.9447544296    -0.1707388070
Bq         2.2592031110    -3.8749770979    -0.0587408319
Bq         2.3389266385    -3.8217457957    -0.2342702813
Bq         2.2193413472    -3.9015927491     0.0290238929
Bq         2.3787884023    -3.7951301446    -0.3220350060
Bq         2.1794795834    -3.9282084002     0.1167886176
Bq         2.4186501661    -3.7685144935    -0.4097997307
Bq         2.1396178196    -3.9548240513     0.2045533423
Bq         2.4585119299    -3.7418988424    -0.4975644554
Bq         2.0997560558    -3.9814397024     0.2923180670
Bq         2.4983736937    -3.7152831913    -0.5853291801
Bq         2.2990648747    -3.8483614468    -0.1465055566
Bq         2.2481966376    -3.7785841152    -0.0345075814
Bq         2.3279201652    -3.7253528130    -0.2100370308
Bq         2.2083348738    -3.8051997663     0.0532571433
Bq         2.3677819289    -3.6987371619    -0.2978017555
Bq         2.1684731100    -3.8318154174     0.1410218680
Bq         2.4076436927    -3.6721215108    -0.3855664802
Bq         2.1286113462    -3.8584310686     0.2287865927
Bq         2.4475054565    -3.6455058597    -0.4733312050
Bq         2.0887495824    -3.8850467197     0.3165513175
Bq         2.4873672203    -3.6188902086    -0.5610959297
Bq         2.2880584014    -3.7519684641    -0.1222723061
Bq         2.2371901642    -3.6821911325    -0.0102743309
Bq         2.3169136918    -3.6289598303    -0.1858037804
Bq         2.1973284004    -3.7088067836     0.0774903938
Bq         2.3567754556    -3.6023441792    -0.2735685051
Bq         2.1574666366    -3.7354224347     0.1652551185
Bq         2.3966372194    -3.5757285281    -0.3613332298
Bq         2.1176048728    -3.7620380858     0.2530198432
Bq         2.4364989831    -3.5491128770    -0.4490979545
Bq         2.0777431091    -3.7886537369     0.3407845679
Bq         2.4763607469    -3.5224972259    -0.5368626792
Bq         2.2770519280    -3.6555754814    -0.0980390556
Bq         2.2261836908    -3.5857981498     0.0139589195
Bq         2.3059072184    -3.5325668476    -0.1615705299
Bq         2.1863219270    -3.6124138009     0.1017236442
Bq         2.3457689822    -3.5059511965    -0.2493352546
Bq         2.1464601633    -3.6390294520     0.1894883689
Bq         2.3856307460    -3.4793355454    -0.3370999793
Bq         2.1065983995    -3.6656451031     0.2772530937
Bq         2.4254925098    -3.4527198943    -0.4248647040
Bq         2.0667366357    -3.6922607542     0.3650178184
Bq         2.4653542736    -3.4261042432    -0.5126294288

1
2
3
4
5
6
7
8
9
10
11
12
13
14
15
16
17
18
19
20
21
22
23
24
25
26
27
28
29
30
31
32
33
34
35
36
37
38
39
40
41
42
43
44
45
46
47
48
49
50
51
52
53
54
55
56
57
58
59
60
61
62
63
64
65
66
67
68
69
70
71
72
73
74
75
76
77
78
79
80
81
82
83
84
85
86
87
88
89
90
91
92
93
94
95
96
97
98
99
100
101
102
103
104
105
106
107
108
109
110
111
112
113
114
115
116
117
118
119
120
121
122
123
124
125
126
127
128
129
130
131
132
133
134
135
136
137
138
139
140
141
142
143
144
145
146
147
148
149
150
151
152
153
154
155
156
157
158
159
160
161
162
163
164
165
166
167
168
169
170
171
172
173
174
175
176
177
178
179
180
181
182
183
184
185
186
187
188
189
190
191
192
193
194
195
196
197
198
199
200
201
202
203
204
205
206
207
208
209
210
211
212
213
214
215
216
217
218
219
220
221
222
223
224
225
226
227
228
229
230
231
232
233
234
235
236

