%nproc=8
%mem=1000MB
# rb3lyp/6-311+g** NMR geom=connectivity

Title

0 1
C    -4.0500558   -0.5771862    0.8136712
H    -5.0263804   -1.0082727    1.0024760
C    -3.9381552    0.6617804    0.2400876
H    -4.8252424    1.2338890   -0.0111295
C    -2.6768410    1.2433246    0.0057578
C    -1.4974121    0.5051527    0.2848253
C    -1.6508332   -0.7338728    0.9404026
H    -0.7713646   -1.2730967    1.2633753
C    -2.8898548   -1.2624035    1.1994307
H    -2.9683706   -2.2124563    1.7152676
C    -2.5773185    2.5963696   -0.4192930
H    -3.4870728    3.1412239   -0.6474055
C    -1.3741895    3.2147896   -0.4364030
H    -1.2997315    4.2742019   -0.6578144
C    -0.1719488    2.4994090   -0.1734588
C    -0.2043917    1.1018437    0.0192689
C     1.0513491    3.2042560   -0.0676222
H     1.0427344    4.2819499   -0.1896997
C     2.1942091    2.5487446    0.2579577
H     3.1168527    3.0912848    0.4334727
C     2.2216473    1.1336562    0.2934990
C     1.0486931    0.3945528    0.0302412
C     3.4483363    0.4614633    0.5573939
H     4.3095794    1.0606054    0.8334846
C     3.5427346   -0.8855926    0.4749463
H     4.4731467   -1.3939704    0.7038822
C     2.4490052   -1.6474447   -0.0196319
C     1.2150704   -1.0057258   -0.3013573
C     0.2531113   -1.7434440   -1.0216591
H    -0.6541356   -1.2535051   -1.3462847
C     0.4494193   -3.0628597   -1.3413779
H    -0.3083162   -3.5944309   -1.9054060
C     1.6251726   -3.7207967   -0.9552541
H     1.7670048   -4.7687404   -1.1927019
C     2.6109872   -3.0144177   -0.3183050
H     3.5525612   -3.4902813   -0.0646367
Bq         0.5019223102     3.8958846707    -0.5597124046
Bq         0.4827124036     4.0186312576    -0.0753940641
Bq         0.4798433765     4.1401204069    -0.0030604254
Bq         0.4875273391     4.0910217722    -0.1967877616
Bq         0.4760013951     4.1646697243     0.0938032427
Bq         0.4913693204     4.0664724548    -0.2936514297
Bq         0.4721594138     4.1892190417     0.1906669107
Bq         0.4952113018     4.0419231374    -0.3905150978
Bq         0.4683174325     4.2137683590     0.2875305788
Bq         0.4990532831     4.0173738200    -0.4873787659
Bq         0.4644754511     4.2383176764     0.3843942469
Bq         0.5028952644     3.9928245027    -0.5842424340
Bq         0.4836853578     4.1155710895    -0.0999240935
Bq         0.4808163307     4.2370602389    -0.0275904549
Bq         0.4885002933     4.1879616041    -0.2213177910
Bq         0.4769743494     4.2616095562     0.0692732132
Bq         0.4923422747     4.1634122867    -0.3181814591
Bq         0.4731323680     4.2861588736     0.1661368813
Bq         0.4961842560     4.1388629694    -0.4150451272
Bq         0.4692903867     4.3107081910     0.2630005494
Bq         0.5000262373     4.1143136520    -0.5119087953
Bq         0.4654484054     4.3352575084     0.3598642175
Bq         0.5038682187     4.0897643346    -0.6087724634
Bq         0.4846583120     4.2125109215    -0.1244541230
Bq         0.4817892849     4.3340000708    -0.0521204843
Bq         0.4894732476     4.2849014360    -0.2458478205
Bq         0.4779473036     4.3585493882     0.0447431838
Bq         0.4933152289     4.2603521187    -0.3427114886
Bq         0.4741053222     4.3830987055     0.1416068519
Bq         0.4971572102     4.2358028013    -0.4395751567
Bq         0.4702633409     4.4076480229     0.2384705200
Bq         0.5009991915     4.2112534839    -0.5364388247
Bq         0.4664213596     4.4321973403     0.3353341881
Bq         0.5048411729     4.1867041665    -0.6333024928
Bq         0.4856312662     4.3094507534    -0.1489841524
Bq         0.4827622391     4.4309399027    -0.0766505137
Bq         0.4904462018     4.3818412680    -0.2703778499
Bq         0.4789202578     4.4554892201     0.0202131544
Bq         0.4942881831     4.3572919506    -0.3672415180
Bq         0.4750782765     4.4800385375     0.1170768225
Bq         0.4981301644     4.3327426332    -0.4641051861
Bq         0.4712362951     4.5045878549     0.2139404905
Bq         0.5019721458     4.3081933159    -0.5609688542
Bq         0.4673943138     4.5291371722     0.3108041586
Bq         0.5058141271     4.2836439985    -0.6578325223
Bq         0.4866042205     4.4063905854    -0.1735141818
Bq         0.5340359597    -0.4160516942     1.1538142215
Bq         0.5417199224    -0.4651503290     0.9600868853
Bq         0.5301939784    -0.3915023768     1.2506778896
Bq         0.5455619037    -0.4896996464     0.8632232172
Bq         0.5263519971    -0.3669530595     1.3475415577
Bq         0.5494038851    -0.5142489637     0.7663595491
Bq         0.5225100158    -0.3424037421     1.4444052258
Bq         0.5532458664    -0.5387982811     0.6694958810
Bq         0.5186680344    -0.3178544247     1.5412688939
Bq         0.5570878477    -0.5633475985     0.5726322130
Bq         0.5378779411    -0.4406010116     1.0569505534
Bq         0.5350089140    -0.3191118623     1.1292841921
Bq         0.5426928766    -0.3682104970     0.9355568559
Bq         0.5311669326    -0.2945625449     1.2261478602
Bq         0.5465348580    -0.3927598144     0.8386931878
Bq         0.5273249513    -0.2700132275     1.3230115283
Bq         0.5503768393    -0.4173091318     0.7418295197
Bq         0.5234829700    -0.2454639102     1.4198751963
Bq         0.5542188206    -0.4418584492     0.6449658516
Bq         0.5196409886    -0.2209145928     1.5167388644
Bq         0.5580608019    -0.4664077665     0.5481021835
Bq         0.5388508953    -0.3436611797     1.0324205240
Bq         0.5359818682    -0.2221720303     1.1047541626
Bq         0.5436658308    -0.2712706651     0.9110268265
Bq         0.5321398869    -0.1976227130     1.2016178307
Bq         0.5475078122    -0.2958199825     0.8141631584
Bq         0.5282979055    -0.1730733956     1.2984814988
Bq         0.5513497935    -0.3203692998     0.7172994903
Bq         0.5244559242    -0.1485240782     1.3953451669
Bq         0.5551917748    -0.3449186172     0.6204358222
Bq         0.5206139429    -0.1239747608     1.4922088350
Bq         0.5590337562    -0.3694679346     0.5235721541
Bq         0.5398238495    -0.2467213477     1.0078904946
Bq         0.5369548224    -0.1252321984     1.0802241332
Bq         0.5446387851    -0.1743308332     0.8864967970
Bq         0.5331128411    -0.1006828810     1.1770878013
Bq         0.5484807664    -0.1988801505     0.7896331289
Bq         0.5292708598    -0.0761335637     1.2739514694
Bq         0.5523227477    -0.2234294679     0.6927694609
Bq         0.5254288784    -0.0515842463     1.3708151375
Bq         0.5561647291    -0.2479787853     0.5959057928
Bq         0.5215868971    -0.0270349289     1.4676788056
Bq         0.5600067104    -0.2725281027     0.4990421247
Bq         0.5407968037    -0.1497815158     0.9833604651
Bq         0.5379277766    -0.0282923665     1.0556941038
Bq         0.5456117393    -0.0773910012     0.8619667676
Bq         0.5340857953    -0.0037430491     1.1525577719
Bq         0.5494537206    -0.1019403186     0.7651030995
Bq         0.5302438140     0.0208062683     1.2494214400
Bq         0.5532957020    -0.1264896360     0.6682394314
Bq         0.5264018327     0.0453555857     1.3462851081
Bq         0.5571376833    -0.1510389533     0.5713757633
Bq         0.5225598513     0.0699049030     1.4431487762
Bq         0.5609796646    -0.1755882707     0.4745120953
Bq         0.5417697580    -0.0528416838     0.9588304357
Bq         0.5389007309     0.0686474655     1.0311640744
Bq         0.5465846935     0.0195488307     0.8374367382
Bq         0.5350587495     0.0931967828     1.1280277425
Bq         0.5504266748    -0.0050004867     0.7405730701
Bq         0.5312167682     0.1177461002     1.2248914105
Bq         0.5542686562    -0.0295498040     0.6437094020
Bq         0.5273747869     0.1422954176     1.3217550786
Bq         0.5581106375    -0.0540991214     0.5468457339
Bq         0.5235328055     0.1668447350     1.4186187467
Bq         0.5619526188    -0.0786484388     0.4499820658
Bq         0.5427427122     0.0440981481     0.9343004063
Bq         0.5398736851     0.1655872974     1.0066340449
Bq         0.5475576477     0.1164886627     0.8129067088
Bq         0.5360317038     0.1901366148     1.1034977130
Bq         0.5513996291     0.0919393453     0.7160430407
Bq         0.5321897224     0.2146859322     1.2003613811
Bq         0.5552416104     0.0673900279     0.6191793726
Bq         0.5283477411     0.2392352495     1.2972250492
Bq         0.5590835917     0.0428407105     0.5223157045
Bq         0.5245057598     0.2637845669     1.3940887173
Bq         0.5629255731     0.0182913932     0.4254520364
Bq         0.5437156664     0.1410379800     0.9097703768
Bq         0.5408466393     0.2625271294     0.9821040155
Bq         0.5485306020     0.2134284946     0.7883766793
Bq         0.5370046580     0.2870764467     1.0789676836
Bq         0.5523725833     0.1888791772     0.6915130112
Bq         0.5331626767     0.3116257641     1.1758313517
Bq         0.5562145646     0.1643298598     0.5946493431
Bq         0.5293206953     0.3361750815     1.2726950198
Bq         0.5600565460     0.1397805425     0.4977856751
Bq         0.5254787140     0.3607243989     1.3695586879
Bq         0.5638985273     0.1152312251     0.4009220070
Bq         0.5446886206     0.2379778120     0.8852403474
Bq         0.5418195935     0.3594669613     0.9575739861
Bq         0.5495035562     0.3103683265     0.7638466499
Bq         0.5379776122     0.3840162787     1.0544376542
Bq         0.5533455375     0.2858190092     0.6669829818
Bq         0.5341356309     0.4085655960     1.1513013223
Bq         0.5571875189     0.2612696918     0.5701193137
Bq         0.5302936495     0.4331149134     1.2481649904
Bq         0.5610295002     0.2367203744     0.4732556456
Bq         0.5264516682     0.4576642308     1.3450286584
Bq         0.5648714815     0.2121710570     0.3763919775
Bq         0.5456615749     0.3349176439     0.8607103180
Bq         0.5427925478     0.4564067932     0.9330439567
Bq         0.5504765104     0.4073081585     0.7393166205
Bq         0.5389505664     0.4809561106     1.0299076247
Bq         0.5543184917     0.3827588411     0.6424529524
Bq         0.5351085851     0.5055054280     1.1267712928
Bq         0.5581604731     0.3582095237     0.5455892843
Bq         0.5312666038     0.5300547454     1.2236349609
Bq         0.5620024544     0.3336602064     0.4487256162
Bq         0.5274246224     0.5546040627     1.3204986290
Bq         0.5658444357     0.3091108890     0.3518619481
Bq         0.5466345291     0.4318574759     0.8361802886
Bq         0.5437655020     0.5533466252     0.9085139272
Bq         0.5514494646     0.5042479904     0.7147865910
Bq         0.5399235207     0.5778959425     1.0053775953
Bq         0.5552914460     0.4796986730     0.6179229230
Bq         0.5360815393     0.6024452599     1.1022412634
Bq         0.5591334273     0.4551493557     0.5210592549
Bq         0.5322395580     0.6269945773     1.1991049315
Bq         0.5629754086     0.4306000383     0.4241955868
Bq         0.5283975767     0.6515438947     1.2959685996
Bq         0.5668173900     0.4060507209     0.3273319187
Bq         0.5476074833     0.5287973078     0.8116502591
Bq         0.5447384562     0.6502864571     0.8839838978
Bq         0.5524224189     0.6011878224     0.6902565616
Bq         0.5408964749     0.6748357745     0.9808475659
Bq         0.5562644002     0.5766385050     0.5933928935
Bq         0.5370544936     0.6993850919     1.0777112340
Bq         0.5601063815     0.5520891876     0.4965292254
Bq         0.5332125122     0.7239344092     1.1745749021
Bq         0.5639483629     0.5275398702     0.3996655574
Bq         0.5293705309     0.7484837266     1.2714385702
Bq         0.5677903442     0.5029905529     0.3028018893
Bq         0.5485804375     0.6257371397     0.7871202297
Bq         0.5457114104     0.7472262890     0.8594538684
Bq         0.5533953731     0.6981276543     0.6657265322
Bq         0.5418694291     0.7717756064     0.9563175365
Bq         0.5572373544     0.6735783369     0.5688628641
Bq         0.5380274478     0.7963249238     1.0531812046
Bq         0.5610793357     0.6490290195     0.4719991960
Bq         0.5341854664     0.8208742412     1.1500448726
Bq         0.5649213171     0.6244797022     0.3751355279
Bq         0.5303434851     0.8454235585     1.2469085407
Bq         0.5687632984     0.5999303848     0.2782718598
Bq         0.5495533918     0.7226769717     0.7625902003
Bq         0.5466843647     0.8441661210     0.8349238389
Bq         0.5543683273     0.7950674862     0.6411965028
Bq         0.5428423833     0.8687154384     0.9317875070
Bq         0.5582103086     0.7705181689     0.5443328347
Bq         0.5390004020     0.8932647557     1.0286511751
Bq         0.5620522900     0.7459688515     0.4474691666
Bq         0.5351584207     0.9178140731     1.1255148432
Bq         0.5658942713     0.7214195341     0.3506054985
Bq         0.5313164393     0.9423633905     1.2223785113
Bq         0.5697362526     0.6968702167     0.2537418304
Bq         0.5505263460     0.8196168036     0.7380601709

1
2
3
4
5
6
7
8
9
10
11
12
13
14
15
16
17
18
19
20
21
22
23
24
25
26
27
28
29
30
31
32
33
34
35
36
37
38
39
40
41
42
43
44
45
46
47
48
49
50
51
52
53
54
55
56
57
58
59
60
61
62
63
64
65
66
67
68
69
70
71
72
73
74
75
76
77
78
79
80
81
82
83
84
85
86
87
88
89
90
91
92
93
94
95
96
97
98
99
100
101
102
103
104
105
106
107
108
109
110
111
112
113
114
115
116
117
118
119
120
121
122
123
124
125
126
127
128
129
130
131
132
133
134
135
136
137
138
139
140
141
142
143
144
145
146
147
148
149
150
151
152
153
154
155
156
157
158
159
160
161
162
163
164
165
166
167
168
169
170
171
172
173
174
175
176
177
178
179
180
181
182
183
184
185
186
187
188
189
190
191
192
193
194
195
196
197
198
199
200
201
202
203
204
205
206
207
208
209
210
211
212
213
214
215
216
217
218
219
220
221
222
223
224
225
226
227
228
229
230
231
232
233
234
235
236

