%nproc=8
%mem=1000MB
# rb3lyp/6-311+g** NMR geom=connectivity

Title

0 1
C    -4.0500558   -0.5771862    0.8136712
H    -5.0263804   -1.0082727    1.0024760
C    -3.9381552    0.6617804    0.2400876
H    -4.8252424    1.2338890   -0.0111295
C    -2.6768410    1.2433246    0.0057578
C    -1.4974121    0.5051527    0.2848253
C    -1.6508332   -0.7338728    0.9404026
H    -0.7713646   -1.2730967    1.2633753
C    -2.8898548   -1.2624035    1.1994307
H    -2.9683706   -2.2124563    1.7152676
C    -2.5773185    2.5963696   -0.4192930
H    -3.4870728    3.1412239   -0.6474055
C    -1.3741895    3.2147896   -0.4364030
H    -1.2997315    4.2742019   -0.6578144
C    -0.1719488    2.4994090   -0.1734588
C    -0.2043917    1.1018437    0.0192689
C     1.0513491    3.2042560   -0.0676222
H     1.0427344    4.2819499   -0.1896997
C     2.1942091    2.5487446    0.2579577
H     3.1168527    3.0912848    0.4334727
C     2.2216473    1.1336562    0.2934990
C     1.0486931    0.3945528    0.0302412
C     3.4483363    0.4614633    0.5573939
H     4.3095794    1.0606054    0.8334846
C     3.5427346   -0.8855926    0.4749463
H     4.4731467   -1.3939704    0.7038822
C     2.4490052   -1.6474447   -0.0196319
C     1.2150704   -1.0057258   -0.3013573
C     0.2531113   -1.7434440   -1.0216591
H    -0.6541356   -1.2535051   -1.3462847
C     0.4494193   -3.0628597   -1.3413779
H    -0.3083162   -3.5944309   -1.9054060
C     1.6251726   -3.7207967   -0.9552541
H     1.7670048   -4.7687404   -1.1927019
C     2.6109872   -3.0144177   -0.3183050
H     3.5525612   -3.4902813   -0.0646367
Bq         4.4479192826    -0.0608273311     1.5055200003
Bq         4.5506347399    -0.0039166950     1.1231449039
Bq         4.4222404183    -0.0750549901     1.6011137744
Bq         4.5763136042     0.0103109641     1.0275511298
Bq         4.3965615539    -0.0892826491     1.6967075485
Bq         4.6019924685     0.0245386231     0.9319573557
Bq         4.3708826896    -0.1035103082     1.7923013226
Bq         4.6276713328     0.0387662821     0.8363635816
Bq         4.4992770112    -0.0323720130     1.3143324521
Bq         4.4699070964     0.0523830220     1.4236667657
Bq         4.5212648250     0.0808383400     1.2324792176
Bq         4.4442282321     0.0381553629     1.5192605398
Bq         4.5469436893     0.0950659991     1.1368854435
Bq         4.4185493677     0.0239277039     1.6148543139
Bq         4.5726225537     0.1092936581     1.0412916694
Bq         4.3928705034     0.0097000449     1.7104480880
Bq         4.5983014180     0.1235213171     0.9456978953
Bq         4.3671916391    -0.0045276141     1.8060418621
Bq         4.6239802823     0.1377489761     0.8501041212
Bq         4.4955859607     0.0666106810     1.3280729916
Bq         4.4662160458     0.1513657160     1.4374073053
Bq         4.5175737745     0.1798210341     1.2462197571
Bq         4.4405371815     0.1371380570     1.5330010794
Bq         4.5432526388     0.1940486931     1.1506259830
Bq         4.4148583172     0.1229103980     1.6285948535
Bq         4.5689315031     0.2082763521     1.0550322089
Bq         4.3891794529     0.1086827389     1.7241886276
Bq         4.5946103675     0.2225040112     0.9594384348
Bq         4.3635005885     0.0944550799     1.8197824017
Bq         4.6202892318     0.2367316702     0.8638446607
Bq         4.4918949102     0.1655933750     1.3418135312
Bq         4.4625249953     0.2503484100     1.4511478449
Bq         4.5138827239     0.2788037281     1.2599602967
Bq         4.4368461310     0.2361207510     1.5467416190
Bq         4.5395615883     0.2930313871     1.1643665226
Bq         4.4111672667     0.2218930920     1.6423353930
Bq         4.5652404526     0.3072590462     1.0687727485
Bq         4.3854884023     0.2076654330     1.7379291671
Bq         4.5909193169     0.3214867052     0.9731789744
Bq         4.3598095380     0.1934377739     1.8335229412
Bq         4.6165981812     0.3357143642     0.8775852003
Bq         4.4882038596     0.2645760691     1.3555540708
Bq         4.4588339448     0.3493311041     1.4648883844
Bq         4.5101916734     0.3777864221     1.2737008362
Bq         4.4331550804     0.3351034451     1.5604821585
Bq         4.5358705377     0.3920140812     1.1781070621
Bq         4.4074762161     0.3208757860     1.6560759326
Bq         4.5615494021     0.4062417402     1.0825132880
Bq         4.3817973518     0.3066481270     1.7516697067
Bq         4.5872282664     0.4204693992     0.9869195139
Bq         4.3561184875     0.2924204680     1.8472634808
Bq         4.6129071307     0.4346970583     0.8913257398
Bq         4.4845128091     0.3635587631     1.3692946103
Bq         4.4551428942     0.4483137981     1.4786289240
Bq         4.5065006229     0.4767691162     1.2874413758
Bq         4.4294640299     0.4340861391     1.5742226981
Bq         4.5321794872     0.4909967752     1.1918476017
Bq         4.4037851656     0.4198584801     1.6698164722
Bq         4.5578583515     0.5052244342     1.0962538276
Bq         4.3781063013     0.4056308210     1.7654102463
Bq         4.5835372158     0.5194520933     1.0006600535
Bq         4.3524274369     0.3914031620     1.8610040204
Bq         4.6092160802     0.5336797523     0.9050662794
Bq         4.4808217586     0.4625414571     1.3830351499
Bq         4.4514518437     0.5472964922     1.4923694635
Bq         4.5028095723     0.5757518102     1.3011819153
Bq         4.4257729794     0.5330688331     1.5879632376
Bq         4.5284884367     0.5899794692     1.2055881412
Bq         4.4000941151     0.5188411741     1.6835570117
Bq         4.5541673010     0.6042071283     1.1099943672
Bq         4.3744152507     0.5046135151     1.7791507858
Bq         4.5798461653     0.6184347873     1.0144005931
Bq         4.3487363864     0.4903858560     1.8747445599
Bq         4.6055250296     0.6326624463     0.9188068190
Bq         4.4771307080     0.5615241512     1.3967756894
Bq         4.4477607932     0.6462791862     1.5061100031
Bq         4.4991185218     0.6747345042     1.3149224549
Bq         4.4220819288     0.6320515272     1.6017037772
Bq         4.5247973861     0.6889621633     1.2193286808
Bq         4.3964030645     0.6178238681     1.6972975513
Bq         4.5504762505     0.7031898223     1.1237349067
Bq         4.3707242002     0.6035962091     1.7928913254
Bq         4.5761551148     0.7174174813     1.0281411326
Bq         4.3450453359     0.5893685501     1.8884850995
Bq         4.6018339791     0.7316451404     0.9325473585
Bq         4.4734396575     0.6605068452     1.4105162290
Bq         4.4440697426     0.7452618802     1.5198505427
Bq         4.4954274713     0.7737171983     1.3286629945
Bq         4.4183908783     0.7310342212     1.6154443167
Bq         4.5211063356     0.7879448573     1.2330692204
Bq         4.3927120140     0.7168065622     1.7110380908
Bq         4.5467851999     0.8021725163     1.1374754463
Bq         4.3670331497     0.7025789031     1.8066318649
Bq         4.5724640642     0.8164001754     1.0418816722
Bq         4.3413542853     0.6883512441     1.9022256390
Bq         4.5981429286     0.8306278344     0.9462878981
Bq         4.4697486069     0.7594895393     1.4242567686
Bq         4.4403786921     0.8442445743     1.5335910822
Bq         4.4917364207     0.8726998923     1.3424035340
Bq         4.4146998278     0.8300169152     1.6291848563
Bq         4.5174152851     0.8869275513     1.2468097599
Bq         4.3890209634     0.8157892562     1.7247786304
Bq         4.5430941494     0.9011552104     1.1512159858
Bq         4.3633420991     0.8015615972     1.8203724045
Bq         4.5687730137     0.9153828694     1.0556222117
Bq         4.3376632348     0.7873339381     1.9159661786
Bq         4.5944518780     0.9296105284     0.9600284376
Bq         4.4660575564     0.8584722333     1.4379973081
Bq         4.4366876416     0.9432272683     1.5473316218
Bq         4.4880453702     0.9716825864     1.3561440736
Bq         4.4110087772     0.9289996093     1.6429253959
Bq         4.5137242345     0.9859102454     1.2605502995
Bq         4.3853299129     0.9147719502     1.7385191700
Bq         4.5394030988     1.0001379044     1.1649565254
Bq         4.3596510486     0.9005442912     1.8341129441
Bq         4.5650819632     1.0143655634     1.0693627513
Bq         4.3339721843     0.8863166322     1.9297067181
Bq         4.5907608275     1.0285932225     0.9737689772
Bq         4.4623665059     0.9574549273     1.4517378477
Bq         4.4329965910     1.0422099623     1.5610721613
Bq         4.4843543197     1.0706652804     1.3698846131
Bq         4.4073177267     1.0279823033     1.6566659354
Bq         4.5100331840     1.0848929394     1.2742908390
Bq         4.3816388624     1.0137546443     1.7522597095
Bq         4.5357120483     1.0991205984     1.1786970649
Bq         4.3559599981     0.9995269852     1.8478534836
Bq         4.5613909126     1.1133482575     1.0831032909
Bq         4.3302811337     0.9852993262     1.9434472577
Bq         4.5870697770     1.1275759165     0.9875095168
Bq         4.4586754553     1.0564376214     1.4654783872
Bq         4.4293055405     1.1411926564     1.5748127009
Bq         4.4806632691     1.1696479744     1.3836251527
Bq         4.4036266762     1.1269649973     1.6704064750
Bq         4.5063421335     1.1838756335     1.2880313786
Bq         4.3779478118     1.1127373383     1.7660002491
Bq         4.5320209978     1.1981032925     1.1924376045
Bq         4.3522689475     1.0985096793     1.8615940232
Bq         4.5576998621     1.2123309515     1.0968438304
Bq         4.3265900832     1.0842820203     1.9571877973
Bq         4.5833787264     1.2265586105     1.0012500563
Bq         4.4549844048     1.1554203154     1.4792189268
Bq         4.4256144899     1.2401753504     1.5885532404
Bq         4.4769722186     1.2686306685     1.3973656923
Bq         4.3999356256     1.2259476914     1.6841470145
Bq         4.5026510829     1.2828583275     1.3017719182
Bq         4.3742567613     1.2117200323     1.7797407886
Bq         4.5283299472     1.2970859865     1.2061781441
Bq         4.3485778970     1.1974923733     1.8753345627
Bq         4.5540088116     1.3113136455     1.1105843700
Bq         4.3228990327     1.1832647143     1.9709283368
Bq         4.5796876759     1.3255413046     1.0149905959
Bq         4.4512933543     1.2544030094     1.4929594664
Bq         4.4219234394     1.3391580444     1.6022937800
Bq         4.4732811681     1.3676133625     1.4111062318
Bq         4.3962445751     1.3249303854     1.6978875541
Bq         4.4989600324     1.3818410215     1.3155124577
Bq         4.3705657108     1.3107027264     1.7934813282
Bq         4.5246388967     1.3960686806     1.2199186836
Bq         4.3448868464     1.2964750674     1.8890751023
Bq         4.5503177610     1.4102963396     1.1243249095
Bq         4.3192079821     1.2822474083     1.9846688764
Bq         4.5759966253     1.4245239986     1.0287311354
Bq         4.4476023037     1.3533857035     1.5067000059
Bq         4.4182323889     1.4381407385     1.6160343196
Bq         4.4695901175     1.4665960565     1.4248467714
Bq         4.3925535246     1.4239130794     1.7116280937
Bq         4.4952689818     1.4808237156     1.3292529973
Bq         4.3668746602     1.4096854204     1.8072218678
Bq         4.5209478462     1.4950513746     1.2336592232
Bq         4.3411957959     1.3954577614     1.9028156418
Bq         4.5466267105     1.5092790336     1.1380654491
Bq         4.3155169316     1.3812301024     1.9984094159
Bq         4.5723055748     1.5235066926     1.0424716750
Bq         4.4439112532     1.4523683975     1.5204405455
Bq         4.4145413383     1.5371234325     1.6297748591
Bq         4.4658990670     1.5655787506     1.4385873109
Bq         4.3888624740     1.5228957735     1.7253686332
Bq         4.4915779313     1.5798064096     1.3429935368
Bq         4.3631836097     1.5086681145     1.8209624073
Bq         4.5172567956     1.5940340686     1.2473997627
Bq         4.3375047454     1.4944404554     1.9165561814
Bq         4.5429356600     1.6082617277     1.1518059886
Bq         4.3118258811     1.4802127964     2.0121499555
Bq         4.5686145243     1.6224893867     1.0562122146
Bq         4.4402202027     1.5513510915     1.5341810850
Bq         4.4108502878     1.6361061265     1.6435153987
Bq         4.4622080165     1.6645614446     1.4523278505
Bq         4.3851714235     1.6218784675     1.7391091728
Bq         4.4878868808     1.6787891036     1.3567340764
Bq         4.3594925592     1.6076508085     1.8347029469
Bq         4.5135657451     1.6930167627     1.2611403023
Bq         4.3338136948     1.5934231495     1.9302967210
Bq         4.5392446094     1.7072444217     1.1655465282
Bq         4.3081348305     1.5791954904     2.0258904951
Bq         4.5649234737     1.7214720807     1.0699527541
Bq         4.4365291521     1.6503337856     1.5479216246
Bq         4.4071592373     1.7350888206     1.6572559382
Bq         4.4585169659     1.7635441386     1.4660683901
Bq         4.3814803729     1.7208611616     1.7528497123
Bq         4.4841958302     1.7777717977     1.3704746160

1
2
3
4
5
6
7
8
9
10
11
12
13
14
15
16
17
18
19
20
21
22
23
24
25
26
27
28
29
30
31
32
33
34
35
36
37
38
39
40
41
42
43
44
45
46
47
48
49
50
51
52
53
54
55
56
57
58
59
60
61
62
63
64
65
66
67
68
69
70
71
72
73
74
75
76
77
78
79
80
81
82
83
84
85
86
87
88
89
90
91
92
93
94
95
96
97
98
99
100
101
102
103
104
105
106
107
108
109
110
111
112
113
114
115
116
117
118
119
120
121
122
123
124
125
126
127
128
129
130
131
132
133
134
135
136
137
138
139
140
141
142
143
144
145
146
147
148
149
150
151
152
153
154
155
156
157
158
159
160
161
162
163
164
165
166
167
168
169
170
171
172
173
174
175
176
177
178
179
180
181
182
183
184
185
186
187
188
189
190
191
192
193
194
195
196
197
198
199
200
201
202
203
204
205
206
207
208
209
210
211
212
213
214
215
216
217
218
219
220
221
222
223
224
225
226
227
228
229
230
231
232
233
234
235
236

