%nproc=8
%mem=1000MB
# rb3lyp/6-311+g** NMR geom=connectivity

Title

0 1
C    -4.0500558   -0.5771862    0.8136712
H    -5.0263804   -1.0082727    1.0024760
C    -3.9381552    0.6617804    0.2400876
H    -4.8252424    1.2338890   -0.0111295
C    -2.6768410    1.2433246    0.0057578
C    -1.4974121    0.5051527    0.2848253
C    -1.6508332   -0.7338728    0.9404026
H    -0.7713646   -1.2730967    1.2633753
C    -2.8898548   -1.2624035    1.1994307
H    -2.9683706   -2.2124563    1.7152676
C    -2.5773185    2.5963696   -0.4192930
H    -3.4870728    3.1412239   -0.6474055
C    -1.3741895    3.2147896   -0.4364030
H    -1.2997315    4.2742019   -0.6578144
C    -0.1719488    2.4994090   -0.1734588
C    -0.2043917    1.1018437    0.0192689
C     1.0513491    3.2042560   -0.0676222
H     1.0427344    4.2819499   -0.1896997
C     2.1942091    2.5487446    0.2579577
H     3.1168527    3.0912848    0.4334727
C     2.2216473    1.1336562    0.2934990
C     1.0486931    0.3945528    0.0302412
C     3.4483363    0.4614633    0.5573939
H     4.3095794    1.0606054    0.8334846
C     3.5427346   -0.8855926    0.4749463
H     4.4731467   -1.3939704    0.7038822
C     2.4490052   -1.6474447   -0.0196319
C     1.2150704   -1.0057258   -0.3013573
C     0.2531113   -1.7434440   -1.0216591
H    -0.6541356   -1.2535051   -1.3462847
C     0.4494193   -3.0628597   -1.3413779
H    -0.3083162   -3.5944309   -1.9054060
C     1.6251726   -3.7207967   -0.9552541
H     1.7670048   -4.7687404   -1.1927019
C     2.6109872   -3.0144177   -0.3183050
H     3.5525612   -3.4902813   -0.0646367
Bq        -0.5889597396    -4.5396583552    -2.0096809137
Bq        -0.8679920861    -4.7259679130    -1.3953278407
Bq        -0.5490979758    -4.5130427041    -2.0974456384
Bq        -0.9078538499    -4.7525835641    -1.3075631160
Bq        -0.5092362120    -4.4864270530    -2.1852103632
Bq        -0.7085450309    -4.6195053085    -1.7463867396
Bq        -0.7594132681    -4.5497279769    -1.6343887644
Bq        -0.6796897405    -4.4964966747    -1.8099182138
Bq        -0.7992750319    -4.5763436280    -1.5466240397
Bq        -0.6398279767    -4.4698810236    -1.8976829386
Bq        -0.8391367957    -4.6029592791    -1.4588593150
Bq        -0.5999662130    -4.4432653725    -1.9854476633
Bq        -0.8789985595    -4.6295749303    -1.3710945903
Bq        -0.5601044492    -4.4166497214    -2.0732123880
Bq        -0.9188603233    -4.6561905814    -1.2833298656
Bq        -0.5202426854    -4.3900340703    -2.1609771127
Bq        -0.7195515043    -4.5231123258    -1.7221534891
Bq        -0.7704197415    -4.4533349942    -1.6101555140
Bq        -0.6906962139    -4.4001036920    -1.7856849634
Bq        -0.8102815053    -4.4799506453    -1.5223907893
Bq        -0.6508344501    -4.3734880409    -1.8734496881
Bq        -0.8501432690    -4.5065662964    -1.4346260645
Bq        -0.6109726863    -4.3468723898    -1.9612144128
Bq        -0.8900050328    -4.5331819475    -1.3468613398
Bq        -0.5711109225    -4.3202567387    -2.0489791375
Bq        -0.9298667966    -4.5597975986    -1.2590966151
Bq        -0.5312491587    -4.2936410876    -2.1367438622
Bq        -0.7305579777    -4.4267193431    -1.6979202387
Bq        -0.7814262148    -4.3569420115    -1.5859222635
Bq        -0.7017026873    -4.3037107093    -1.7614517129
Bq        -0.8212879786    -4.3835576626    -1.4981575388
Bq        -0.6618409235    -4.2770950582    -1.8492164376
Bq        -0.8611497424    -4.4101733137    -1.4103928141
Bq        -0.6219791597    -4.2504794071    -1.9369811624
Bq        -0.9010115062    -4.4367889648    -1.3226280894
Bq        -0.5821173959    -4.2238637560    -2.0247458871
Bq        -0.9408732700    -4.4634046159    -1.2348633647
Bq        -0.5422556321    -4.1972481049    -2.1125106118
Bq        -0.7415644511    -4.3303263604    -1.6736869882
Bq        -0.7924326882    -4.2605490288    -1.5616890130
Bq        -0.7127091606    -4.2073177266    -1.7372184625
Bq        -0.8322944520    -4.2871646799    -1.4739242883
Bq        -0.6728473969    -4.1807020755    -1.8249831872
Bq        -0.8721562158    -4.3137803310    -1.3861595636
Bq        -0.6329856331    -4.1540864244    -1.9127479119
Bq        -0.9120179796    -4.3403959821    -1.2983948389
Bq        -0.5931238693    -4.1274707733    -2.0005126366
Bq        -0.9518797434    -4.3670116332    -1.2106301142
Bq        -0.5532621055    -4.1008551222    -2.0882773613
Bq        -0.7525709244    -4.2339333777    -1.6494537378
Bq        -0.8034391616    -4.1641560461    -1.5374557626
Bq        -0.7237156340    -4.1109247439    -1.7129852120
Bq        -0.8433009254    -4.1907716972    -1.4496910379
Bq        -0.6838538702    -4.0843090928    -1.8007499367
Bq        -0.8831626892    -4.2173873483    -1.3619263132
Bq        -0.6439921064    -4.0576934417    -1.8885146614
Bq        -0.9230244530    -4.2440029994    -1.2741615885
Bq        -0.6041303427    -4.0310777905    -1.9762793862
Bq        -0.9628862167    -4.2706186505    -1.1863968637
Bq        -0.5642685789    -4.0044621394    -2.0640441109
Bq        -0.7635773978    -4.1375403950    -1.6252204873
Bq        -0.8144456350    -4.0677630634    -1.5132225121
Bq        -0.7347221074    -4.0145317612    -1.6887519616
Bq        -0.8543073987    -4.0943787145    -1.4254577874
Bq        -0.6948603436    -3.9879161100    -1.7765166863
Bq        -0.8941691625    -4.1209943656    -1.3376930627
Bq        -0.6549985798    -3.9613004589    -1.8642814110
Bq        -0.9340309263    -4.1476100167    -1.2499283380
Bq        -0.6151368160    -3.9346848078    -1.9520461357
Bq        -0.9738926901    -4.1742256678    -1.1621636133
Bq        -0.5752750522    -3.9080691567    -2.0398108604
Bq        -0.7745838712    -4.0411474123    -1.6009872368
Bq        -0.8254521083    -3.9713700807    -1.4889892617
Bq        -0.7457285808    -3.9181387784    -1.6645187111
Bq        -0.8653138721    -3.9979857318    -1.4012245370
Bq        -0.7058668170    -3.8915231273    -1.7522834358
Bq        -0.9051756359    -4.0246013829    -1.3134598122
Bq        -0.6660050532    -3.8649074762    -1.8400481605
Bq        -0.9450373997    -4.0512170340    -1.2256950875
Bq        -0.6261432894    -3.8382918251    -1.9278128852
Bq        -0.9848991635    -4.0778326851    -1.1379303628
Bq        -0.5862815256    -3.8116761740    -2.0155776100
Bq        -0.7855903445    -3.9447544296    -1.5767539864
Bq        -0.8364585817    -3.8749770979    -1.4647560112
Bq        -0.7567350541    -3.8217457957    -1.6402854606
Bq        -0.8763203455    -3.9015927491    -1.3769912865
Bq        -0.7168732903    -3.7951301446    -1.7280501854
Bq        -0.9161821093    -3.9282084002    -1.2892265618
Bq        -0.6770115266    -3.7685144935    -1.8158149101
Bq        -0.9560438731    -3.9548240513    -1.2014618371
Bq        -0.6371497628    -3.7418988424    -1.9035796348
Bq        -0.9959056369    -3.9814397024    -1.1136971124
Bq        -0.5972879990    -3.7152831913    -1.9913443595
Bq        -0.7965968179    -3.8483614468    -1.5525207359
Bq        -0.8474650551    -3.7785841152    -1.4405227608
Bq        -0.7677415275    -3.7253528130    -1.6160522102
Bq        -0.8873268189    -3.8051997663    -1.3527580360
Bq        -0.7278797637    -3.6987371619    -1.7038169349
Bq        -0.9271885827    -3.8318154174    -1.2649933113
Bq        -0.6880179999    -3.6721215108    -1.7915816596
Bq        -0.9670503464    -3.8584310686    -1.1772285866
Bq        -0.6481562361    -3.6455058597    -1.8793463843
Bq        -1.0069121102    -3.8850467197    -1.0894638619
Bq        -0.6082944724    -3.6188902086    -1.9671111090
Bq        -0.8076032913    -3.7519684641    -1.5282874855
Bq        -0.8584715285    -3.6821911325    -1.4162895103
Bq        -0.7787480009    -3.6289598303    -1.5918189597
Bq        -0.8983332922    -3.7088067836    -1.3285247856
Bq        -0.7388862371    -3.6023441792    -1.6795836844
Bq        -0.9381950560    -3.7354224347    -1.2407600609
Bq        -0.6990244733    -3.5757285281    -1.7673484092
Bq        -0.9780568198    -3.7620380858    -1.1529953362
Bq        -0.6591627095    -3.5491128770    -1.8551131339
Bq        -1.0179185836    -3.7886537369    -1.0652306114
Bq        -0.6193009457    -3.5224972259    -1.9428778586
Bq        -0.8186097647    -3.6555754814    -1.5040542350
Bq        -0.8694780018    -3.5857981498    -1.3920562598
Bq        -0.7897544742    -3.5325668476    -1.5675857093
Bq        -0.9093397656    -3.6124138009    -1.3042915351
Bq        -0.7498927105    -3.5059511965    -1.6553504340
Bq        -0.9492015294    -3.6390294520    -1.2165268104
Bq        -0.7100309467    -3.4793355454    -1.7431151587
Bq        -0.9890632932    -3.6656451031    -1.1287620857
Bq        -0.6701691829    -3.4527198943    -1.8308798834
Bq        -1.0289250570    -3.6922607542    -1.0409973610
Bq        -0.6303074191    -3.4261042432    -1.9186446081
Bq        -0.8296162380    -3.5591824987    -1.4798209846
Bq        -0.8804844752    -3.4894051671    -1.3678230094
Bq        -0.8007609476    -3.4361738649    -1.5433524588
Bq        -0.9203462390    -3.5160208182    -1.2800582847
Bq        -0.7608991838    -3.4095582138    -1.6311171835
Bq        -0.9602080028    -3.5426364693    -1.1922935600
Bq        -0.7210374200    -3.3829425627    -1.7188819082
Bq        -1.0000697666    -3.5692521204    -1.1045288352
Bq        -0.6811756563    -3.3563269116    -1.8066466329
Bq        -1.0399315303    -3.5958677715    -1.0167641105
Bq        -0.6413138925    -3.3297112605    -1.8944113577
Bq        -0.8406227114    -3.4627895160    -1.4555877341
Bq        -0.8914909486    -3.3930121844    -1.3435897589
Bq        -0.8117674210    -3.3397808822    -1.5191192084
Bq        -0.9313527124    -3.4196278355    -1.2558250342
Bq        -0.7719056572    -3.3131652311    -1.6068839331
Bq        -0.9712144761    -3.4462434866    -1.1680603095
Bq        -0.7320438934    -3.2865495800    -1.6946486578
Bq        -1.0110762399    -3.4728591377    -1.0802955848
Bq        -0.6921821296    -3.2599339288    -1.7824133825
Bq        -1.0509380037    -3.4994747888    -0.9925308601
Bq        -0.6523203658    -3.2333182777    -1.8701781072
Bq        -0.8516291848    -3.3663965333    -1.4313544836
Bq        -0.9024974219    -3.2966192017    -1.3193565085
Bq        -0.8227738944    -3.2433878995    -1.4948859579
Bq        -0.9423591857    -3.3232348528    -1.2315917838
Bq        -0.7829121306    -3.2167722484    -1.5826506826
Bq        -0.9822209495    -3.3498505039    -1.1438270590
Bq        -0.7430503668    -3.1901565972    -1.6704154073
Bq        -1.0220827133    -3.3764661550    -1.0560623343
Bq        -0.7031886030    -3.1635409461    -1.7581801320
Bq        -1.0619444771    -3.4030818061    -0.9682976096
Bq        -0.6633268392    -3.1369252950    -1.8459448567
Bq        -0.8626356582    -3.2700035506    -1.4071212332
Bq        -0.9135038953    -3.2002262190    -1.2951232580
Bq        -0.8337803677    -3.1469949167    -1.4706527074
Bq        -0.9533656591    -3.2268418701    -1.2073585333
Bq        -0.7939186039    -3.1203792656    -1.5584174321
Bq        -0.9932274229    -3.2534575212    -1.1195938086
Bq        -0.7540568402    -3.0937636145    -1.6461821569
Bq        -1.0330891867    -3.2800731723    -1.0318290839
Bq        -0.7141950764    -3.0671479634    -1.7339468816
Bq        -1.0729509505    -3.3066888234    -0.9440643592
Bq        -0.6743333126    -3.0405323123    -1.8217116063
Bq        -0.8736421315    -3.1736105679    -1.3828879827
Bq        -0.9245103687    -3.1038332362    -1.2708900076
Bq        -0.8447868411    -3.0506019340    -1.4464194570
Bq        -0.9643721325    -3.1304488874    -1.1831252828
Bq        -0.8049250773    -3.0239862829    -1.5341841817
Bq        -1.0042338963    -3.1570645385    -1.0953605581
Bq        -0.7650633135    -2.9973706318    -1.6219489064
Bq        -1.0440956600    -3.1836801896    -1.0075958334
Bq        -0.7252015497    -2.9707549807    -1.7097136311
Bq        -1.0839574238    -3.2102958407    -0.9198311087
Bq        -0.6853397860    -2.9441393296    -1.7974783558
Bq        -0.8846486049    -3.0772175851    -1.3586547323
Bq        -0.9355168421    -3.0074402535    -1.2466567571
Bq        -0.8557933145    -2.9542089513    -1.4221862065
Bq        -0.9753786058    -3.0340559046    -1.1588920324
Bq        -0.8159315507    -2.9275933002    -1.5099509312
Bq        -1.0152403696    -3.0606715558    -1.0711273077
Bq        -0.7760697869    -2.9009776491    -1.5977156559
Bq        -1.0551021334    -3.0872872069    -0.9833625830
Bq        -0.7362080231    -2.8743619980    -1.6854803807
Bq        -1.0949638972    -3.1139028580    -0.8955978582
Bq        -0.6963462593    -2.8477463469    -1.7732451054
Bq        -0.8956550783    -2.9808246024    -1.3344214818
Bq        -0.9465233154    -2.9110472708    -1.2224235066
Bq        -0.8667997879    -2.8578159686    -1.3979529561
Bq        -0.9863850792    -2.9376629219    -1.1346587819
Bq        -0.8269380241    -2.8312003175    -1.4857176808
Bq        -1.0262468430    -2.9642785730    -1.0468940572
Bq        -0.7870762603    -2.8045846664    -1.5734824055
Bq        -1.0661086068    -2.9908942241    -0.9591293325

1
2
3
4
5
6
7
8
9
10
11
12
13
14
15
16
17
18
19
20
21
22
23
24
25
26
27
28
29
30
31
32
33
34
35
36
37
38
39
40
41
42
43
44
45
46
47
48
49
50
51
52
53
54
55
56
57
58
59
60
61
62
63
64
65
66
67
68
69
70
71
72
73
74
75
76
77
78
79
80
81
82
83
84
85
86
87
88
89
90
91
92
93
94
95
96
97
98
99
100
101
102
103
104
105
106
107
108
109
110
111
112
113
114
115
116
117
118
119
120
121
122
123
124
125
126
127
128
129
130
131
132
133
134
135
136
137
138
139
140
141
142
143
144
145
146
147
148
149
150
151
152
153
154
155
156
157
158
159
160
161
162
163
164
165
166
167
168
169
170
171
172
173
174
175
176
177
178
179
180
181
182
183
184
185
186
187
188
189
190
191
192
193
194
195
196
197
198
199
200
201
202
203
204
205
206
207
208
209
210
211
212
213
214
215
216
217
218
219
220
221
222
223
224
225
226
227
228
229
230
231
232
233
234
235
236

