%nproc=8
%mem=1000MB
# rb3lyp/6-311+g** NMR geom=connectivity

Title

0 1
C    -4.0500558   -0.5771862    0.8136712
H    -5.0263804   -1.0082727    1.0024760
C    -3.9381552    0.6617804    0.2400876
H    -4.8252424    1.2338890   -0.0111295
C    -2.6768410    1.2433246    0.0057578
C    -1.4974121    0.5051527    0.2848253
C    -1.6508332   -0.7338728    0.9404026
H    -0.7713646   -1.2730967    1.2633753
C    -2.8898548   -1.2624035    1.1994307
H    -2.9683706   -2.2124563    1.7152676
C    -2.5773185    2.5963696   -0.4192930
H    -3.4870728    3.1412239   -0.6474055
C    -1.3741895    3.2147896   -0.4364030
H    -1.2997315    4.2742019   -0.6578144
C    -0.1719488    2.4994090   -0.1734588
C    -0.2043917    1.1018437    0.0192689
C     1.0513491    3.2042560   -0.0676222
H     1.0427344    4.2819499   -0.1896997
C     2.1942091    2.5487446    0.2579577
H     3.1168527    3.0912848    0.4334727
C     2.2216473    1.1336562    0.2934990
C     1.0486931    0.3945528    0.0302412
C     3.4483363    0.4614633    0.5573939
H     4.3095794    1.0606054    0.8334846
C     3.5427346   -0.8855926    0.4749463
H     4.4731467   -1.3939704    0.7038822
C     2.4490052   -1.6474447   -0.0196319
C     1.2150704   -1.0057258   -0.3013573
C     0.2531113   -1.7434440   -1.0216591
H    -0.6541356   -1.2535051   -1.3462847
C     0.4494193   -3.0628597   -1.3413779
H    -0.3083162   -3.5944309   -1.9054060
C     1.6251726   -3.7207967   -0.9552541
H     1.7670048   -4.7687404   -1.1927019
C     2.6109872   -3.0144177   -0.3183050
H     3.5525612   -3.4902813   -0.0646367
Bq         4.4563857881     0.1934377739     1.8594657230
Bq         4.7131744313     0.3357143642     0.9035279821
Bq         4.5847801097     0.2645760691     1.3814968526
Bq         4.5554101948     0.3493311041     1.4908311662
Bq         4.6067679235     0.3777864221     1.2996436180
Bq         4.5297313305     0.3351034451     1.5864249403
Bq         4.6324467878     0.3920140812     1.2040498439
Bq         4.5040524662     0.3208757860     1.6820187144
Bq         4.6581256521     0.4062417402     1.1084560698
Bq         4.4783736018     0.3066481270     1.7776124885
Bq         4.6838045164     0.4204693992     1.0128622957
Bq         4.4526947375     0.2924204680     1.8732062626
Bq         4.7094833807     0.4346970583     0.9172685216
Bq         4.5810890591     0.3635587631     1.3952373921
Bq         4.5517191443     0.4483137981     1.5045717058
Bq         4.6030768729     0.4767691162     1.3133841576
Bq         4.5260402800     0.4340861391     1.6001654799
Bq         4.6287557372     0.4909967752     1.2177903835
Bq         4.5003614156     0.4198584801     1.6957592540
Bq         4.6544346016     0.5052244342     1.1221966094
Bq         4.4746825513     0.4056308210     1.7913530280
Bq         4.6801134659     0.5194520933     1.0266028353
Bq         4.4490036870     0.3914031620     1.8869468021
Bq         4.7057923302     0.5336797523     0.9310090612
Bq         4.5773980086     0.4625414571     1.4089779317
Bq         4.5480280937     0.5472964922     1.5183122453
Bq         4.5993858224     0.5757518102     1.3271246971
Bq         4.5223492294     0.5330688331     1.6139060194
Bq         4.6250646867     0.5899794692     1.2315309230
Bq         4.4966703651     0.5188411741     1.7094997935
Bq         4.6507435510     0.6042071283     1.1359371489
Bq         4.4709915008     0.5046135151     1.8050935676
Bq         4.6764224154     0.6184347873     1.0403433748
Bq         4.4453126365     0.4903858560     1.9006873417
Bq         4.7021012797     0.6326624463     0.9447496008
Bq         4.5737069581     0.5615241512     1.4227184712
Bq         4.5443370432     0.6462791862     1.5320527849
Bq         4.5956947719     0.6747345042     1.3408652367
Bq         4.5186581789     0.6320515272     1.6276465590
Bq         4.6213736362     0.6889621633     1.2452714626
Bq         4.4929793146     0.6178238681     1.7232403331
Bq         4.6470525005     0.7031898223     1.1496776885
Bq         4.4673004502     0.6035962091     1.8188341072
Bq         4.6727313648     0.7174174813     1.0540839144
Bq         4.4416215859     0.5893685501     1.9144278813
Bq         4.6984102291     0.7316451404     0.9584901403
Bq         4.5700159075     0.6605068452     1.4364590108
Bq         4.5406459927     0.7452618802     1.5457933244
Bq         4.5920037213     0.7737171983     1.3546057763
Bq         4.5149671283     0.7310342212     1.6413870985
Bq         4.6176825856     0.7879448573     1.2590120022
Bq         4.4892882640     0.7168065622     1.7369808726
Bq         4.6433614500     0.8021725163     1.1634182281
Bq         4.4636093997     0.7025789031     1.8325746467
Bq         4.6690403143     0.8164001754     1.0678244540
Bq         4.4379305354     0.6883512441     1.9281684208
Bq         4.6947191786     0.8306278344     0.9722306799
Bq         4.5663248570     0.7594895393     1.4501995503
Bq         4.5369549421     0.8442445743     1.5595338640
Bq         4.5883126708     0.8726998923     1.3683463158
Bq         4.5112760778     0.8300169152     1.6551276381
Bq         4.6139915351     0.8869275513     1.2727525417
Bq         4.4855972135     0.8157892562     1.7507214122
Bq         4.6396703994     0.9011552104     1.1771587676
Bq         4.4599183492     0.8015615972     1.8463151863
Bq         4.6653492637     0.9153828694     1.0815649935
Bq         4.4342394848     0.7873339381     1.9419089604
Bq         4.6910281281     0.9296105284     0.9859712194
Bq         4.5626338065     0.8584722333     1.4639400899
Bq         4.5332638916     0.9432272683     1.5732744036
Bq         4.5846216202     0.9716825864     1.3820868554
Bq         4.5075850273     0.9289996093     1.6688681777
Bq         4.6103004846     0.9859102454     1.2864930813
Bq         4.4819061630     0.9147719502     1.7644619517
Bq         4.6359793489     1.0001379044     1.1908993072
Bq         4.4562272986     0.9005442912     1.8600557258
Bq         4.6616582132     1.0143655634     1.0953055331
Bq         4.4305484343     0.8863166322     1.9556494999
Bq         4.6873370775     1.0285932225     0.9997117590
Bq         4.5589427559     0.9574549273     1.4776806295
Bq         4.5295728411     1.0422099623     1.5870149431
Bq         4.5809305697     1.0706652804     1.3958273949
Bq         4.5038939767     1.0279823033     1.6826087172
Bq         4.6066094340     1.0848929394     1.3002336208
Bq         4.4782151124     1.0137546443     1.7782024913
Bq         4.6322882984     1.0991205984     1.2046398467
Bq         4.4525362481     0.9995269852     1.8737962654
Bq         4.6579671627     1.1133482575     1.1090460726
Bq         4.4268573838     0.9852993262     1.9693900395
Bq         4.6836460270     1.1275759165     1.0134522985
Bq         4.5552517054     1.0564376214     1.4914211690
Bq         4.5258817905     1.1411926564     1.6007554827
Bq         4.5772395192     1.1696479744     1.4095679345
Bq         4.5002029262     1.1269649973     1.6963492568
Bq         4.6029183835     1.1838756335     1.3139741604
Bq         4.4745240619     1.1127373383     1.7919430309
Bq         4.6285972478     1.1981032925     1.2183803863
Bq         4.4488451976     1.0985096793     1.8875368050
Bq         4.6542761121     1.2123309515     1.1227866122
Bq         4.4231663332     1.0842820203     1.9831305791
Bq         4.6799549765     1.2265586105     1.0271928381
Bq         4.5515606549     1.1554203154     1.5051617086
Bq         4.5221907400     1.2401753504     1.6144960222
Bq         4.5735484686     1.2686306685     1.4233084740
Bq         4.4965118757     1.2259476914     1.7100897963
Bq         4.5992273330     1.2828583275     1.3277147000
Bq         4.4708330114     1.2117200323     1.8056835704
Bq         4.6249061973     1.2970859865     1.2321209259
Bq         4.4451541470     1.1974923733     1.9012773445
Bq         4.6505850616     1.3113136455     1.1365271518
Bq         4.4194752827     1.1832647143     1.9968711186
Bq         4.6762639259     1.3255413046     1.0409333777
Bq         4.5478696043     1.2544030094     1.5189022481
Bq         4.5184996895     1.3391580444     1.6282365618
Bq         4.5698574181     1.3676133625     1.4370490136
Bq         4.4928208251     1.3249303854     1.7238303359
Bq         4.5955362824     1.3818410215     1.3414552395
Bq         4.4671419608     1.3107027264     1.8194241100
Bq         4.6212151467     1.3960686806     1.2458614654
Bq         4.4414630965     1.2964750674     1.9150178841
Bq         4.6468940111     1.4102963396     1.1502676913
Bq         4.4157842322     1.2822474083     2.0106116582
Bq         4.6725728754     1.4245239986     1.0546739172
Bq         4.5441785538     1.3533857035     1.5326427877
Bq         4.5148086389     1.4381407385     1.6419771014
Bq         4.5661663676     1.4665960565     1.4507895532
Bq         4.4891297746     1.4239130794     1.7375708754
Bq         4.5918452319     1.4808237156     1.3551957791
Bq         4.4634509103     1.4096854204     1.8331646495
Bq         4.6175240962     1.4950513746     1.2596020050
Bq         4.4377720460     1.3954577614     1.9287584236
Bq         4.6432029605     1.5092790336     1.1640082309
Bq         4.4120931816     1.3812301024     2.0243521977
Bq         4.6688818249     1.5235066926     1.0684144568
Bq         4.5404875032     1.4523683975     1.5463833273
Bq         4.5111175884     1.5371234325     1.6557176409
Bq         4.5624753170     1.5655787506     1.4645300927
Bq         4.4854387241     1.5228957735     1.7513114150
Bq         4.5881541814     1.5798064096     1.3689363186
Bq         4.4597598597     1.5086681145     1.8469051891
Bq         4.6138330457     1.5940340686     1.2733425445
Bq         4.4340809954     1.4944404554     1.9424989632
Bq         4.6395119100     1.6082617277     1.1777487704
Bq         4.4084021311     1.4802127964     2.0380927373
Bq         4.6651907743     1.6224893867     1.0821549963
Bq         4.5367964527     1.5513510915     1.5601238668
Bq         4.5074265379     1.6361061265     1.6694581805
Bq         4.5587842665     1.6645614446     1.4782706323
Bq         4.4817476735     1.6218784675     1.7650519546
Bq         4.5844631308     1.6787891036     1.3826768582
Bq         4.4560688092     1.6076508085     1.8606457287
Bq         4.6101419951     1.6930167627     1.2870830841
Bq         4.4303899449     1.5934231495     1.9562395028
Bq         4.6358208595     1.7072444217     1.1914893100
Bq         4.4047110806     1.5791954904     2.0518332768
Bq         4.6614997238     1.7214720807     1.0958955359
Bq         4.5331054022     1.6503337856     1.5738644064
Bq         4.5037354873     1.7350888206     1.6831987200
Bq         4.5550932160     1.7635441386     1.4920111718
Bq         4.4780566230     1.7208611616     1.7787924941
Bq         4.5807720803     1.7777717977     1.3964173977
Bq         4.4523777587     1.7066335025     1.8743862682
Bq         4.6064509446     1.7919994567     1.3008236237
Bq         4.4266988944     1.6924058435     1.9699800423
Bq         4.6321298089     1.8062271157     1.2052298496
Bq         4.4010200300     1.6781781845     2.0655738164
Bq         4.6578086733     1.8204547748     1.1096360755
Bq         4.5294143516     1.7493164796     1.5876049459
Bq         4.5000444368     1.8340715146     1.6969392596
Bq         4.5514021654     1.8625268327     1.5057517114
Bq         4.4743655725     1.8198438556     1.7925330337
Bq         4.5770810298     1.8767544917     1.4101579373
Bq         4.4486867081     1.8056161966     1.8881268078
Bq         4.6027598941     1.8909821507     1.3145641632
Bq         4.4230078438     1.7913885375     1.9837205819
Bq         4.6284387584     1.9052098098     1.2189703891
Bq         4.3973289795     1.7771608785     2.0793143560
Bq         4.6541176227     1.9194374688     1.1233766150
Bq         4.5257233011     1.8482991736     1.6013454855
Bq         4.4963533862     1.9330542087     1.7106797991
Bq         4.5477111149     1.9615095267     1.5194922510
Bq         4.4706745219     1.9188265496     1.8062735732
Bq         4.5733899792     1.9757371857     1.4238984769
Bq         4.4449956576     1.9045988906     1.9018673473
Bq         4.5990688435     1.9899648448     1.3283047028
Bq         4.4193167933     1.8903712316     1.9974611214
Bq         4.6247477079     2.0041925038     1.2327109287
Bq         4.3936379290     1.8761435725     2.0930548955
Bq         4.6504265722     2.0184201628     1.1371171546
Bq         4.5220322506     1.9472818677     1.6150860251
Bq         4.4926623357     2.0320369027     1.7244203387
Bq         4.5440200644     2.0604922207     1.5332327905
Bq         4.4669834714     2.0178092437     1.8200141128
Bq         4.5696989287     2.0747198798     1.4376390164
Bq         4.4413046071     2.0035815846     1.9156078869
Bq         4.5953777930     2.0889475388     1.3420452423
Bq         4.4156257427     1.9893539256     2.0112016610
Bq         4.6210566573     2.1031751978     1.2464514682
Bq         4.3899468784     1.9751262666     2.1067954351
Bq         4.6467355216     2.1174028569     1.1508576941

1
2
3
4
5
6
7
8
9
10
11
12
13
14
15
16
17
18
19
20
21
22
23
24
25
26
27
28
29
30
31
32
33
34
35
36
37
38
39
40
41
42
43
44
45
46
47
48
49
50
51
52
53
54
55
56
57
58
59
60
61
62
63
64
65
66
67
68
69
70
71
72
73
74
75
76
77
78
79
80
81
82
83
84
85
86
87
88
89
90
91
92
93
94
95
96
97
98
99
100
101
102
103
104
105
106
107
108
109
110
111
112
113
114
115
116
117
118
119
120
121
122
123
124
125
126
127
128
129
130
131
132
133
134
135
136
137
138
139
140
141
142
143
144
145
146
147
148
149
150
151
152
153
154
155
156
157
158
159
160
161
162
163
164
165
166
167
168
169
170
171
172
173
174
175
176
177
178
179
180
181
182
183
184
185
186
187
188
189
190
191
192
193
194
195
196
197
198
199
200
201
202
203
204
205
206
207
208
209
210
211
212
213
214
215
216
217
218
219
220
221
222
223
224
225
226
227
228
229
230
231
232
233
234
235
236

