%nproc=8
%mem=1000MB
# rb3lyp/6-311+g** NMR geom=connectivity

Title

0 1
C    -4.0500558   -0.5771862    0.8136712
H    -5.0263804   -1.0082727    1.0024760
C    -3.9381552    0.6617804    0.2400876
H    -4.8252424    1.2338890   -0.0111295
C    -2.6768410    1.2433246    0.0057578
C    -1.4974121    0.5051527    0.2848253
C    -1.6508332   -0.7338728    0.9404026
H    -0.7713646   -1.2730967    1.2633753
C    -2.8898548   -1.2624035    1.1994307
H    -2.9683706   -2.2124563    1.7152676
C    -2.5773185    2.5963696   -0.4192930
H    -3.4870728    3.1412239   -0.6474055
C    -1.3741895    3.2147896   -0.4364030
H    -1.2997315    4.2742019   -0.6578144
C    -0.1719488    2.4994090   -0.1734588
C    -0.2043917    1.1018437    0.0192689
C     1.0513491    3.2042560   -0.0676222
H     1.0427344    4.2819499   -0.1896997
C     2.1942091    2.5487446    0.2579577
H     3.1168527    3.0912848    0.4334727
C     2.2216473    1.1336562    0.2934990
C     1.0486931    0.3945528    0.0302412
C     3.4483363    0.4614633    0.5573939
H     4.3095794    1.0606054    0.8334846
C     3.5427346   -0.8855926    0.4749463
H     4.4731467   -1.3939704    0.7038822
C     2.4490052   -1.6474447   -0.0196319
C     1.2150704   -1.0057258   -0.3013573
C     0.2531113   -1.7434440   -1.0216591
H    -0.6541356   -1.2535051   -1.3462847
C     0.4494193   -3.0628597   -1.3413779
H    -0.3083162   -3.5944309   -1.9054060
C     1.6251726   -3.7207967   -0.9552541
H     1.7670048   -4.7687404   -1.1927019
C     2.6109872   -3.0144177   -0.3183050
H     3.5525612   -3.4902813   -0.0646367
Bq        -0.4844013823    -0.0737694757     0.7232703353
Bq        -0.4875873425     0.3175749774     1.5337266072
Bq        -0.4840473867    -0.1172521927     0.6332196384
Bq        -0.4858173646     0.1001613924     1.0834731228
Bq        -0.4860004279     0.2336955020     1.1300414386
Bq        -0.4852924367     0.1467300680     0.9499400449
Bq        -0.4863544235     0.2771782190     1.2200921355
Bq        -0.4849384412     0.1032473510     0.8598893480
Bq        -0.4867084190     0.3206609360     1.3101428324
Bq        -0.4845844456     0.0597646340     0.7698386511
Bq        -0.4870624146     0.3641436530     1.4001935293
Bq        -0.4842304500     0.0162819170     0.6797879542
Bq        -0.4874164102     0.4076263700     1.4902442262
Bq        -0.4838764544    -0.0272008000     0.5897372573
Bq        -0.4856464323     0.1902127850     1.0399907418
Bq        -0.4858294956     0.3237468947     1.0865590576
Bq        -0.4851215045     0.2367814607     0.9064576638
Bq        -0.4861834912     0.3672296117     1.1766097545
Bq        -0.4847675089     0.1932987437     0.8164069670
Bq        -0.4865374868     0.4107123287     1.2666604514
Bq        -0.4844135133     0.1498160267     0.7263562701
Bq        -0.4868914823     0.4541950457     1.3567111482
Bq        -0.4840595177     0.1063333097     0.6363055732
Bq        -0.4872454779     0.4976777627     1.4467618451
Bq        -0.4837055222     0.0628505927     0.5462548763
Bq        -0.4854755000     0.2802641777     0.9965083607
Bq        -0.4856585633     0.4137982874     1.0430766766
Bq        -0.4849505722     0.3268328534     0.8629752828
Bq        -0.4860125589     0.4572810044     1.1331273735
Bq        -0.4845965766     0.2833501364     0.7729245859
Bq        -0.4863665545     0.5007637214     1.2231780703
Bq        -0.4842425810     0.2398674194     0.6828738890
Bq        -0.4867205501     0.5442464384     1.3132287672
Bq        -0.4838885855     0.1963847023     0.5928231922
Bq        -0.4870745456     0.5877291554     1.4032794641
Bq        -0.4835345899     0.1529019853     0.5027724953
Bq        -0.4853045678     0.3703155704     0.9530259797
Bq        -0.4854876311     0.5038496800     0.9995942955
Bq        -0.4847796399     0.4168842460     0.8194929018
Bq        -0.4858416266     0.5473323970     1.0896449924
Bq        -0.4844256443     0.3734015290     0.7294422049
Bq        -0.4861956222     0.5908151140     1.1796956893
Bq        -0.4840716488     0.3299188120     0.6393915080
Bq        -0.4865496178     0.6342978311     1.2697463862
Bq        -0.4837176532     0.2864360950     0.5493408111
Bq        -0.4869036134     0.6777805481     1.3597970831
Bq        -0.4833636576     0.2429533780     0.4592901142
Bq        -0.4851336355     0.4603669630     0.9095435987
Bq        -0.4853166988     0.5939010727     0.9561119145
Bq        -0.4846087076     0.5069356387     0.7760105207
Bq        -0.4856706944     0.6373837897     1.0461626114
Bq        -0.4842547121     0.4634529217     0.6859598239
Bq        -0.4860246899     0.6808665067     1.1362133083
Bq        -0.4839007165     0.4199702047     0.5959091270
Bq        -0.4863786855     0.7243492237     1.2262640052
Bq        -0.4835467209     0.3764874877     0.5058584301
Bq        -0.4867326811     0.7678319407     1.3163147020
Bq        -0.4831927253     0.3330047707     0.4158077332
Bq        -0.4849627032     0.5504183557     0.8660612176
Bq        -0.4851457665     0.6839524654     0.9126295335
Bq        -0.4844377754     0.5969870314     0.7325281397
Bq        -0.4854997621     0.7274351824     1.0026802304
Bq        -0.4840837798     0.5535043144     0.6424774428
Bq        -0.4858537577     0.7709178994     1.0927309272
Bq        -0.4837297842     0.5100215974     0.5524267459
Bq        -0.4862077532     0.8144006164     1.1827816241
Bq        -0.4833757886     0.4665388804     0.4623760491
Bq        -0.4865617488     0.8578833334     1.2728323210
Bq        -0.4830217931     0.4230561634     0.3723253522
Bq        -0.4847917709     0.6404697484     0.8225788366
Bq        -0.4849748342     0.7740038581     0.8691471524
Bq        -0.4842668431     0.6870384240     0.6890457587
Bq        -0.4853288298     0.8174865751     0.9591978493
Bq        -0.4839128475     0.6435557070     0.5989950618
Bq        -0.4856828254     0.8609692921     1.0492485462
Bq        -0.4835588519     0.6000729900     0.5089443649
Bq        -0.4860368210     0.9044520091     1.1392992431
Bq        -0.4832048564     0.5565902730     0.4188936680
Bq        -0.4863908165     0.9479347261     1.2293499400
Bq        -0.4828508608     0.5131075560     0.3288429711
Bq        -0.4846208387     0.7305211410     0.7790964556
Bq        -0.4848039020     0.8640552507     0.8256647714
Bq        -0.4840959108     0.7770898167     0.6455633776
Bq        -0.4851578975     0.9075379677     0.9157154683
Bq        -0.4837419152     0.7336070997     0.5555126808
Bq        -0.4855118931     0.9510206847     1.0057661652
Bq        -0.4833879197     0.6901243827     0.4654619839
Bq        -0.4858658887     0.9945034017     1.0958168621
Bq        -0.4830339241     0.6466416657     0.3754112870
Bq        -0.4862198843     1.0379861187     1.1858675589
Bq        -0.4826799285     0.6031589487     0.2853605901
Bq        -0.4844499064     0.8205725337     0.7356140745
Bq        -0.4846329697     0.9541066434     0.7821823904
Bq        -0.4839249785     0.8671412094     0.6020809966
Bq        -0.4849869653     0.9975893604     0.8722330873
Bq        -0.4835709830     0.8236584924     0.5120302997
Bq        -0.4853409608     1.0410720774     0.9622837841
Bq        -0.4832169874     0.7801757754     0.4219796028
Bq        -0.4856949564     1.0845547944     1.0523344810
Bq        -0.4828629918     0.7366930584     0.3319289060
Bq        -0.4860489520     1.1280375114     1.1423851779
Bq        -0.4825089962     0.6932103414     0.2418782091
Bq        -0.4842789741     0.9106239264     0.6921316935
Bq        -0.4844620374     1.0441580361     0.7387000093
Bq        -0.4837540463     0.9571926021     0.5585986156
Bq        -0.4848160330     1.0876407531     0.8287507062
Bq        -0.4834000507     0.9137098850     0.4685479187
Bq        -0.4851700286     1.1311234701     0.9188014031
Bq        -0.4830460551     0.8702271680     0.3784972218
Bq        -0.4855240241     1.1746061871     1.0088521000
Bq        -0.4826920595     0.8267444510     0.2884465249
Bq        -0.4858780197     1.2180889041     1.0989027969
Bq        -0.4823380640     0.7832617340     0.1983958280
Bq        -0.4841080418     1.0006753191     0.6486493125
Bq        -0.4842911051     1.1342094287     0.6952176283
Bq        -0.4835831140     1.0472439947     0.5151162345
Bq        -0.4846451007     1.1776921457     0.7852683252
Bq        -0.4832291184     1.0037612777     0.4250655377
Bq        -0.4849990963     1.2211748627     0.8753190221
Bq        -0.4828751228     0.9602785607     0.3350148408
Bq        -0.4853530919     1.2646575797     0.9653697190
Bq        -0.4825211273     0.9167958437     0.2449641439
Bq        -0.4857070874     1.3081402968     1.0554204158
Bq        -0.4821671317     0.8733131267     0.1549134470
Bq        -0.4839371096     1.0907267117     0.6051669314
Bq        -0.4841201729     1.2242608214     0.6517352473
Bq        -0.4834121817     1.1372953874     0.4716338535
Bq        -0.4844741684     1.2677435384     0.7417859442
Bq        -0.4830581861     1.0938126704     0.3815831566
Bq        -0.4848281640     1.3112262554     0.8318366410
Bq        -0.4827041906     1.0503299534     0.2915324597
Bq        -0.4851821596     1.3547089724     0.9218873379
Bq        -0.4823501950     1.0068472364     0.2014817629
Bq        -0.4855361552     1.3981916894     1.0119380348
Bq        -0.4819961994     0.9633645194     0.1114310660
Bq        -0.4837661773     1.1807781044     0.5616845504
Bq        -0.4839492406     1.3143122141     0.6082528662
Bq        -0.4832412494     1.2273467801     0.4281514725
Bq        -0.4843032362     1.3577949311     0.6983035631
Bq        -0.4828872539     1.1838640631     0.3381007756
Bq        -0.4846572317     1.4012776481     0.7883542600
Bq        -0.4825332583     1.1403813461     0.2480500787
Bq        -0.4850112273     1.4447603651     0.8784049569
Bq        -0.4821792627     1.0968986291     0.1579993818
Bq        -0.4853652229     1.4882430821     0.9684556538
Bq        -0.4818252671     1.0534159120     0.0679486849
Bq        -0.4835952450     1.2708294971     0.5182021694
Bq        -0.4837783083     1.4043636067     0.5647704852
Bq        -0.4830703172     1.3173981727     0.3846690914
Bq        -0.4841323039     1.4478463237     0.6548211821
Bq        -0.4827163216     1.2739154557     0.2946183946
Bq        -0.4844862995     1.4913290408     0.7448718790
Bq        -0.4823623260     1.2304327387     0.2045676977
Bq        -0.4848402950     1.5348117578     0.8349225759
Bq        -0.4820083304     1.1869500217     0.1145170008
Bq        -0.4851942906     1.5782944748     0.9249732727
Bq        -0.4816543349     1.1434673047     0.0244663039
Bq        -0.4834243127     1.3608808897     0.4747197883
Bq        -0.4836073760     1.4944149994     0.5212881042
Bq        -0.4828993849     1.4074495654     0.3411867104
Bq        -0.4839613716     1.5378977164     0.6113388011
Bq        -0.4825453893     1.3639668484     0.2511360135
Bq        -0.4843153672     1.5813804334     0.7013894979
Bq        -0.4821913937     1.3204841314     0.1610853166
Bq        -0.4846693628     1.6248631504     0.7914401948
Bq        -0.4818373982     1.2770014144     0.0710346198
Bq        -0.4850233583     1.6683458674     0.8814908917
Bq        -0.4814834026     1.2335186974    -0.0190160771
Bq        -0.4832533805     1.4509322824     0.4312374073
Bq        -0.4834364438     1.5844663921     0.4778057231
Bq        -0.4827284526     1.4975009581     0.2977043294
Bq        -0.4837904393     1.6279491091     0.5678564200
Bq        -0.4823744570     1.4540182411     0.2076536325
Bq        -0.4841444349     1.6714318261     0.6579071169
Bq        -0.4820204615     1.4105355241     0.1176029356
Bq        -0.4844984305     1.7149145431     0.7479578138
Bq        -0.4816664659     1.3670528071     0.0275522387
Bq        -0.4848524261     1.7583972601     0.8380085107
Bq        -0.4813124703     1.3235700901    -0.0624984581
Bq        -0.4830824482     1.5409836751     0.3877550263
Bq        -0.4832655115     1.6745177848     0.4343233421
Bq        -0.4825575203     1.5875523507     0.2542219483
Bq        -0.4836195071     1.7180005018     0.5243740390
Bq        -0.4822035248     1.5440696337     0.1641712515
Bq        -0.4839735026     1.7614832188     0.6144247359
Bq        -0.4818495292     1.5005869167     0.0741205546
Bq        -0.4843274982     1.8049659358     0.7044754328
Bq        -0.4814955336     1.4571041997    -0.0159301423
Bq        -0.4846814938     1.8484486528     0.7945261296
Bq        -0.4811415380     1.4136214827    -0.1059808392
Bq        -0.4829115159     1.6310350678     0.3442726452
Bq        -0.4830945792     1.7645691774     0.3908409611
Bq        -0.4823865881     1.6776037434     0.2107395673
Bq        -0.4834485748     1.8080518944     0.4808916580
Bq        -0.4820325925     1.6341210264     0.1206888704
Bq        -0.4838025704     1.8515346114     0.5709423548
Bq        -0.4816785969     1.5906383094     0.0306381736
Bq        -0.4841565659     1.8950173284     0.6609930517
Bq        -0.4813246013     1.5471555924    -0.0594125233
Bq        -0.4845105615     1.9385000454     0.7510437486

1
2
3
4
5
6
7
8
9
10
11
12
13
14
15
16
17
18
19
20
21
22
23
24
25
26
27
28
29
30
31
32
33
34
35
36
37
38
39
40
41
42
43
44
45
46
47
48
49
50
51
52
53
54
55
56
57
58
59
60
61
62
63
64
65
66
67
68
69
70
71
72
73
74
75
76
77
78
79
80
81
82
83
84
85
86
87
88
89
90
91
92
93
94
95
96
97
98
99
100
101
102
103
104
105
106
107
108
109
110
111
112
113
114
115
116
117
118
119
120
121
122
123
124
125
126
127
128
129
130
131
132
133
134
135
136
137
138
139
140
141
142
143
144
145
146
147
148
149
150
151
152
153
154
155
156
157
158
159
160
161
162
163
164
165
166
167
168
169
170
171
172
173
174
175
176
177
178
179
180
181
182
183
184
185
186
187
188
189
190
191
192
193
194
195
196
197
198
199
200
201
202
203
204
205
206
207
208
209
210
211
212
213
214
215
216
217
218
219
220
221
222
223
224
225
226
227
228
229
230
231
232
233
234
235
236

