%nproc=8
%mem=1000MB
# rb3lyp/6-311+g** NMR geom=connectivity

Title

0 1
C    -4.0500558   -0.5771862    0.8136712
H    -5.0263804   -1.0082727    1.0024760
C    -3.9381552    0.6617804    0.2400876
H    -4.8252424    1.2338890   -0.0111295
C    -2.6768410    1.2433246    0.0057578
C    -1.4974121    0.5051527    0.2848253
C    -1.6508332   -0.7338728    0.9404026
H    -0.7713646   -1.2730967    1.2633753
C    -2.8898548   -1.2624035    1.1994307
H    -2.9683706   -2.2124563    1.7152676
C    -2.5773185    2.5963696   -0.4192930
H    -3.4870728    3.1412239   -0.6474055
C    -1.3741895    3.2147896   -0.4364030
H    -1.2997315    4.2742019   -0.6578144
C    -0.1719488    2.4994090   -0.1734588
C    -0.2043917    1.1018437    0.0192689
C     1.0513491    3.2042560   -0.0676222
H     1.0427344    4.2819499   -0.1896997
C     2.1942091    2.5487446    0.2579577
H     3.1168527    3.0912848    0.4334727
C     2.2216473    1.1336562    0.2934990
C     1.0486931    0.3945528    0.0302412
C     3.4483363    0.4614633    0.5573939
H     4.3095794    1.0606054    0.8334846
C     3.5427346   -0.8855926    0.4749463
H     4.4731467   -1.3939704    0.7038822
C     2.4490052   -1.6474447   -0.0196319
C     1.2150704   -1.0057258   -0.3013573
C     0.2531113   -1.7434440   -1.0216591
H    -0.6541356   -1.2535051   -1.3462847
C     0.4494193   -3.0628597   -1.3413779
H    -0.3083162   -3.5944309   -1.9054060
C     1.6251726   -3.7207967   -0.9552541
H     1.7670048   -4.7687404   -1.1927019
C     2.6109872   -3.0144177   -0.3183050
H     3.5525612   -3.4902813   -0.0646367
Bq        -2.9854561836     0.2802641777     0.9866807622
Bq        -2.9856392469     0.4137982874     1.0332490780
Bq        -2.9849312558     0.3268328534     0.8531476842
Bq        -2.9859932425     0.4572810044     1.1232997749
Bq        -2.9845772602     0.2833501364     0.7630969874
Bq        -2.9863472381     0.5007637214     1.2133504718
Bq        -2.9842232646     0.2398674194     0.6730462905
Bq        -2.9867012336     0.5442464384     1.3034011687
Bq        -2.9838692690     0.1963847023     0.5829955936
Bq        -2.9870552292     0.5877291554     1.3934518655
Bq        -2.9835152735     0.1529019853     0.4929448967
Bq        -2.9852852513     0.3703155704     0.9431983811
Bq        -2.9854683146     0.5038496800     0.9897666970
Bq        -2.9847603235     0.4168842460     0.8096653032
Bq        -2.9858223102     0.5473323970     1.0798173939
Bq        -2.9844063279     0.3734015290     0.7196146063
Bq        -2.9861763058     0.5908151140     1.1698680907
Bq        -2.9840523323     0.3299188120     0.6295639095
Bq        -2.9865303014     0.6342978311     1.2599187876
Bq        -2.9836983368     0.2864360950     0.5395132126
Bq        -2.9868842969     0.6777805481     1.3499694845
Bq        -2.9833443412     0.2429533780     0.4494625157
Bq        -2.9851143191     0.4603669630     0.8997160001
Bq        -2.9852973824     0.5939010727     0.9462843159
Bq        -2.9845893912     0.5069356387     0.7661829222
Bq        -2.9856513779     0.6373837897     1.0363350128
Bq        -2.9842353956     0.4634529217     0.6761322253
Bq        -2.9860053735     0.6808665067     1.1263857097
Bq        -2.9838814001     0.4199702047     0.5860815284
Bq        -2.9863593691     0.7243492237     1.2164364066
Bq        -2.9835274045     0.3764874877     0.4960308315
Bq        -2.9867133647     0.7678319407     1.3064871035
Bq        -2.9831734089     0.3330047707     0.4059801347
Bq        -2.9849433868     0.5504183557     0.8562336191
Bq        -2.9851264501     0.6839524654     0.9028019349
Bq        -2.9844184589     0.5969870314     0.7227005412
Bq        -2.9854804457     0.7274351824     0.9928526318
Bq        -2.9840644634     0.5535043144     0.6326498443
Bq        -2.9858344412     0.7709178994     1.0829033287
Bq        -2.9837104678     0.5100215974     0.5425991474
Bq        -2.9861884368     0.8144006164     1.1729540256
Bq        -2.9833564722     0.4665388804     0.4525484505
Bq        -2.9865424324     0.8578833334     1.2630047224
Bq        -2.9830024766     0.4230561634     0.3624977536
Bq        -2.9847724545     0.6404697484     0.8127512380
Bq        -2.9849555178     0.7740038581     0.8593195539
Bq        -2.9842475267     0.6870384240     0.6792181601
Bq        -2.9853095134     0.8174865751     0.9493702508
Bq        -2.9838935311     0.6435557070     0.5891674632
Bq        -2.9856635090     0.8609692921     1.0394209476
Bq        -2.9835395355     0.6000729900     0.4991167664
Bq        -2.9860175045     0.9044520091     1.1294716445
Bq        -2.9831855399     0.5565902730     0.4090660695
Bq        -2.9863715001     0.9479347261     1.2195223414
Bq        -2.9828315444     0.5131075560     0.3190153726
Bq        -2.9846015222     0.7305211410     0.7692688570
Bq        -2.9847845855     0.8640552507     0.8158371729
Bq        -2.9840765944     0.7770898167     0.6357357791
Bq        -2.9851385811     0.9075379677     0.9058878697
Bq        -2.9837225988     0.7336070997     0.5456850822
Bq        -2.9854925767     0.9510206847     0.9959385666
Bq        -2.9833686032     0.6901243827     0.4556343853
Bq        -2.9858465723     0.9945034017     1.0859892635
Bq        -2.9830146077     0.6466416657     0.3655836884
Bq        -2.9862005678     1.0379861187     1.1760399604
Bq        -2.9826606121     0.6031589487     0.2755329916
Bq        -2.9844305900     0.8205725337     0.7257864760
Bq        -2.9846136533     0.9541066434     0.7723547918
Bq        -2.9839056621     0.8671412094     0.5922533981
Bq        -2.9849676488     0.9975893604     0.8624054887
Bq        -2.9835516665     0.8236584924     0.5022027012
Bq        -2.9853216444     1.0410720774     0.9524561856
Bq        -2.9831976710     0.7801757754     0.4121520043
Bq        -2.9856756400     1.0845547944     1.0425068825
Bq        -2.9828436754     0.7366930584     0.3221013074
Bq        -2.9860296356     1.1280375114     1.1325575793
Bq        -2.9824896798     0.6932103414     0.2320506105
Bq        -2.9842596577     0.9106239264     0.6823040949
Bq        -2.9844427210     1.0441580361     0.7288724108
Bq        -2.9837347298     0.9571926021     0.5487710170
Bq        -2.9847967166     1.0876407531     0.8189231077
Bq        -2.9833807343     0.9137098850     0.4587203201
Bq        -2.9851507121     1.1311234701     0.9089738046
Bq        -2.9830267387     0.8702271680     0.3686696233
Bq        -2.9855047077     1.1746061871     0.9990245014
Bq        -2.9826727431     0.8267444510     0.2786189264
Bq        -2.9858587033     1.2180889041     1.0890751983
Bq        -2.9823187475     0.7832617340     0.1885682295
Bq        -2.9840887254     1.0006753191     0.6388217139
Bq        -2.9842717887     1.1342094287     0.6853900298
Bq        -2.9835637976     1.0472439947     0.5052886360
Bq        -2.9846257843     1.1776921457     0.7754407266
Bq        -2.9832098020     1.0037612777     0.4152379391
Bq        -2.9849797799     1.2211748627     0.8654914235
Bq        -2.9828558064     0.9602785607     0.3251872422
Bq        -2.9853337754     1.2646575797     0.9555421204
Bq        -2.9825018108     0.9167958437     0.2351365453
Bq        -2.9856877710     1.3081402968     1.0455928173
Bq        -2.9821478153     0.8733131267     0.1450858485
Bq        -2.9839177931     1.0907267117     0.5953393329
Bq        -2.9841008564     1.2242608214     0.6419076487
Bq        -2.9833928653     1.1372953874     0.4618062550
Bq        -2.9844548520     1.2677435384     0.7319583456
Bq        -2.9830388697     1.0938126704     0.3717555581
Bq        -2.9848088476     1.3112262554     0.8220090425
Bq        -2.9826848741     1.0503299534     0.2817048612
Bq        -2.9851628432     1.3547089724     0.9120597394
Bq        -2.9823308786     1.0068472364     0.1916541643
Bq        -2.9855168387     1.3981916894     1.0021104363
Bq        -2.9819768830     0.9633645194     0.1016034674
Bq        -2.9837468609     1.1807781044     0.5518569518
Bq        -2.9839299242     1.3143122141     0.5984252677
Bq        -2.9832219330     1.2273467801     0.4183238739
Bq        -2.9842839197     1.3577949311     0.6884759646
Bq        -2.9828679374     1.1838640631     0.3282731770
Bq        -2.9846379153     1.4012776481     0.7785266615
Bq        -2.9825139419     1.1403813461     0.2382224802
Bq        -2.9849919109     1.4447603651     0.8685773583
Bq        -2.9821599463     1.0968986291     0.1481717833
Bq        -2.9853459065     1.4882430821     0.9586280552
Bq        -2.9818059507     1.0534159120     0.0581210864
Bq        -2.9835759286     1.2708294971     0.5083745708
Bq        -2.9837589919     1.4043636067     0.5549428867
Bq        -2.9830510007     1.3173981727     0.3748414929
Bq        -2.9841129875     1.4478463237     0.6449935835
Bq        -2.9826970052     1.2739154557     0.2847907960
Bq        -2.9844669830     1.4913290408     0.7350442804
Bq        -2.9823430096     1.2304327387     0.1947400991
Bq        -2.9848209786     1.5348117578     0.8250949773
Bq        -2.9819890140     1.1869500217     0.1046894022
Bq        -2.9851749742     1.5782944748     0.9151456742
Bq        -2.9816350184     1.1434673047     0.0146387054
Bq        -2.9834049963     1.3608808897     0.4648921898
Bq        -2.9835880596     1.4944149994     0.5114605056
Bq        -2.9828800685     1.4074495654     0.3313591119
Bq        -2.9839420552     1.5378977164     0.6015112025
Bq        -2.9825260729     1.3639668484     0.2413084150
Bq        -2.9842960508     1.5813804334     0.6915618994
Bq        -2.9821720773     1.3204841314     0.1512577181
Bq        -2.9846500463     1.6248631504     0.7816125963
Bq        -2.9818180817     1.2770014144     0.0612070212
Bq        -2.9850040419     1.6683458674     0.8716632932
Bq        -2.9814640862     1.2335186974    -0.0288436757
Bq        -2.9832340640     1.4509322824     0.4214098087
Bq        -2.9834171273     1.5844663921     0.4679781246
Bq        -2.9827091362     1.4975009581     0.2878767308
Bq        -2.9837711229     1.6279491091     0.5580288215
Bq        -2.9823551406     1.4540182411     0.1978260339
Bq        -2.9841251185     1.6714318261     0.6480795184
Bq        -2.9820011450     1.4105355241     0.1077753371
Bq        -2.9844791141     1.7149145431     0.7381302152
Bq        -2.9816471495     1.3670528071     0.0177246402
Bq        -2.9848331096     1.7583972601     0.8281809121
Bq        -2.9812931539     1.3235700901    -0.0723260567
Bq        -2.9830631318     1.5409836751     0.3779274277
Bq        -2.9832461951     1.6745177848     0.4244957436
Bq        -2.9825382039     1.5875523507     0.2443943498
Bq        -2.9836001906     1.7180005018     0.5145464404
Bq        -2.9821842083     1.5440696337     0.1543436529
Bq        -2.9839541862     1.7614832188     0.6045971373
Bq        -2.9818302128     1.5005869167     0.0642929560
Bq        -2.9843081818     1.8049659358     0.6946478342
Bq        -2.9814762172     1.4571041997    -0.0257577409
Bq        -2.9846621774     1.8484486528     0.7846985311
Bq        -2.9811222216     1.4136214827    -0.1158084377
Bq        -2.9828921995     1.6310350678     0.3344450467
Bq        -2.9830752628     1.7645691774     0.3810133625
Bq        -2.9823672716     1.6776037434     0.2009119688
Bq        -2.9834292584     1.8080518944     0.4710640594
Bq        -2.9820132761     1.6341210264     0.1108612719
Bq        -2.9837832539     1.8515346114     0.5611147563
Bq        -2.9816592805     1.5906383094     0.0208105750
Bq        -2.9841372495     1.8950173284     0.6511654532
Bq        -2.9813052849     1.5471555924    -0.0692401219
Bq        -2.9844912451     1.9385000454     0.7412161501
Bq        -2.9809512893     1.5036728754    -0.1592908188
Bq        -2.9827212672     1.7210864604     0.2909626656
Bq        -2.9829043305     1.8546205701     0.3375309815
Bq        -2.9821963394     1.7676551361     0.1574295877
Bq        -2.9832583261     1.8981032871     0.4275816784
Bq        -2.9818423438     1.7241724191     0.0673788908
Bq        -2.9836123217     1.9415860041     0.5176323753
Bq        -2.9814883482     1.6806897021    -0.0226718060
Bq        -2.9839663172     1.9850687211     0.6076830721
Bq        -2.9811343526     1.6372069851    -0.1127225029
Bq        -2.9843203128     2.0285514381     0.6977337690
Bq        -2.9807803571     1.5937242681    -0.2027731998
Bq        -2.9825503349     1.8111378531     0.2474802846
Bq        -2.9827333982     1.9446719628     0.2940486005
Bq        -2.9820254071     1.8577065288     0.1139472067
Bq        -2.9830873938     1.9881546798     0.3840992973
Bq        -2.9816714115     1.8142238118     0.0238965098
Bq        -2.9834413894     2.0316373968     0.4741499942
Bq        -2.9813174159     1.7707410947    -0.0661541871
Bq        -2.9837953850     2.0751201138     0.5642006911
Bq        -2.9809634204     1.7272583777    -0.1562048840
Bq        -2.9841493805     2.1186028308     0.6542513880
Bq        -2.9806094248     1.6837756607    -0.2462555808
Bq        -2.9823794027     1.9011892458     0.2039979036
Bq        -2.9825624660     2.0347233554     0.2505662194

1
2
3
4
5
6
7
8
9
10
11
12
13
14
15
16
17
18
19
20
21
22
23
24
25
26
27
28
29
30
31
32
33
34
35
36
37
38
39
40
41
42
43
44
45
46
47
48
49
50
51
52
53
54
55
56
57
58
59
60
61
62
63
64
65
66
67
68
69
70
71
72
73
74
75
76
77
78
79
80
81
82
83
84
85
86
87
88
89
90
91
92
93
94
95
96
97
98
99
100
101
102
103
104
105
106
107
108
109
110
111
112
113
114
115
116
117
118
119
120
121
122
123
124
125
126
127
128
129
130
131
132
133
134
135
136
137
138
139
140
141
142
143
144
145
146
147
148
149
150
151
152
153
154
155
156
157
158
159
160
161
162
163
164
165
166
167
168
169
170
171
172
173
174
175
176
177
178
179
180
181
182
183
184
185
186
187
188
189
190
191
192
193
194
195
196
197
198
199
200
201
202
203
204
205
206
207
208
209
210
211
212
213
214
215
216
217
218
219
220
221
222
223
224
225
226
227
228
229
230
231
232
233
234
235
236

