%nproc=8
%mem=1000MB
# rb3lyp/6-311+g** NMR geom=connectivity

Title

0 1
C    -4.0500558   -0.5771862    0.8136712
H    -5.0263804   -1.0082727    1.0024760
C    -3.9381552    0.6617804    0.2400876
H    -4.8252424    1.2338890   -0.0111295
C    -2.6768410    1.2433246    0.0057578
C    -1.4974121    0.5051527    0.2848253
C    -1.6508332   -0.7338728    0.9404026
H    -0.7713646   -1.2730967    1.2633753
C    -2.8898548   -1.2624035    1.1994307
H    -2.9683706   -2.2124563    1.7152676
C    -2.5773185    2.5963696   -0.4192930
H    -3.4870728    3.1412239   -0.6474055
C    -1.3741895    3.2147896   -0.4364030
H    -1.2997315    4.2742019   -0.6578144
C    -0.1719488    2.4994090   -0.1734588
C    -0.2043917    1.1018437    0.0192689
C     1.0513491    3.2042560   -0.0676222
H     1.0427344    4.2819499   -0.1896997
C     2.1942091    2.5487446    0.2579577
H     3.1168527    3.0912848    0.4334727
C     2.2216473    1.1336562    0.2934990
C     1.0486931    0.3945528    0.0302412
C     3.4483363    0.4614633    0.5573939
H     4.3095794    1.0606054    0.8334846
C     3.5427346   -0.8855926    0.4749463
H     4.4731467   -1.3939704    0.7038822
C     2.4490052   -1.6474447   -0.0196319
C     1.2150704   -1.0057258   -0.3013573
C     0.2531113   -1.7434440   -1.0216591
H    -0.6541356   -1.2535051   -1.3462847
C     0.4494193   -3.0628597   -1.3413779
H    -0.3083162   -3.5944309   -1.9054060
C     1.6251726   -3.7207967   -0.9552541
H     1.7670048   -4.7687404   -1.1927019
C     2.6109872   -3.0144177   -0.3183050
H     3.5525612   -3.4902813   -0.0646367
Bq         4.5609404659    -2.1673083047     0.6993164777
Bq         4.3811884157    -2.2669019179     1.3684728964
Bq         4.5866193303    -2.1530806457     0.6037227036
Bq         4.3555095514    -2.2811295770     1.4640666705
Bq         4.6122981946    -2.1388529867     0.5081289295
Bq         4.4839038730    -2.2099912818     0.9860978000
Bq         4.4545339581    -2.1252362468     1.0954321137
Bq         4.5058916868    -2.0967809288     0.9042445655
Bq         4.4288550938    -2.1394639058     1.1910258877
Bq         4.5315705511    -2.0825532697     0.8086507914
Bq         4.4031762295    -2.1536915649     1.2866196618
Bq         4.5572494154    -2.0683256107     0.7130570173
Bq         4.3774973651    -2.1679192239     1.3822134359
Bq         4.5829282797    -2.0540979517     0.6174632432
Bq         4.3518185008    -2.1821468829     1.4778072100
Bq         4.6086071440    -2.0398702926     0.5218694691
Bq         4.4802128224    -2.1110085878     0.9998383396
Bq         4.4508429076    -2.0262535528     1.1091726532
Bq         4.5022006362    -1.9977982347     0.9179851050
Bq         4.4251640432    -2.0404812118     1.2047664273
Bq         4.5278795005    -1.9835705757     0.8223913309
Bq         4.3994851789    -2.0547088708     1.3003602014
Bq         4.5535583649    -1.9693429167     0.7267975568
Bq         4.3738063146    -2.0689365299     1.3959539755
Bq         4.5792372292    -1.9551152576     0.6312037827
Bq         4.3481274503    -2.0831641889     1.4915477496
Bq         4.6049160935    -1.9408875986     0.5356100086
Bq         4.4765217719    -2.0120258937     1.0135788791
Bq         4.4471518570    -1.9272708587     1.1229131928
Bq         4.4985095857    -1.8988155407     0.9317256446
Bq         4.4214729927    -1.9414985178     1.2185069669
Bq         4.5241884500    -1.8845878817     0.8361318705
Bq         4.3957941284    -1.9557261768     1.3141007410
Bq         4.5498673143    -1.8703602226     0.7405380964
Bq         4.3701152641    -1.9699538358     1.4096945151
Bq         4.5755461786    -1.8561325636     0.6449443223
Bq         4.3444363997    -1.9841814949     1.5052882892
Bq         4.6012250430    -1.8419049046     0.5493505482
Bq         4.4728307214    -1.9130431997     1.0273194187
Bq         4.4434608065    -1.8282881647     1.1366537323
Bq         4.4948185351    -1.7998328466     0.9454661841
Bq         4.4177819422    -1.8425158237     1.2322475064
Bq         4.5204973995    -1.7856051876     0.8498724100
Bq         4.3921030779    -1.8567434828     1.3278412805
Bq         4.5461762638    -1.7713775286     0.7542786360
Bq         4.3664242135    -1.8709711418     1.4234350546
Bq         4.5718551281    -1.7571498696     0.6586848619
Bq         4.3407453492    -1.8851988008     1.5190288287
Bq         4.5975339924    -1.7429222105     0.5630910878
Bq         4.4691396708    -1.8140605057     1.0410599582
Bq         4.4397697560    -1.7293054707     1.1503942719
Bq         4.4911274846    -1.7008501526     0.9592067237
Bq         4.4140908916    -1.7435331297     1.2459880460
Bq         4.5168063489    -1.6866224936     0.8636129496
Bq         4.3884120273    -1.7577607887     1.3415818201
Bq         4.5424852133    -1.6723948346     0.7680191755
Bq         4.3627331630    -1.7719884478     1.4371755942
Bq         4.5681640776    -1.6581671755     0.6724254014
Bq         4.3370542987    -1.7862161068     1.5327693683
Bq         4.5938429419    -1.6439395165     0.5768316273
Bq         4.4654486203    -1.7150778116     1.0548004978
Bq         4.4360787054    -1.6303227766     1.1641348114
Bq         4.4874364341    -1.6018674586     0.9729472633
Bq         4.4103998411    -1.6445504357     1.2597285855
Bq         4.5131152984    -1.5876397995     0.8773534892
Bq         4.3847209768    -1.6587780947     1.3553223596
Bq         4.5387941627    -1.5734121405     0.7817597151
Bq         4.3590421125    -1.6730057537     1.4509161337
Bq         4.5644730270    -1.5591844815     0.6861659410
Bq         4.3333632481    -1.6872334127     1.5465099078
Bq         4.5901518914    -1.5449568225     0.5905721669
Bq         4.4617575698    -1.6160951176     1.0685410374
Bq         4.4323876549    -1.5313400826     1.1778753510
Bq         4.4837453835    -1.5028847645     0.9866878028
Bq         4.4067087906    -1.5455677416     1.2734691251
Bq         4.5094242479    -1.4886571055     0.8910940287
Bq         4.3810299262    -1.5597954007     1.3690628992
Bq         4.5351031122    -1.4744294465     0.7955002546
Bq         4.3553510619    -1.5740230597     1.4646566733
Bq         4.5607819765    -1.4602017875     0.6999064805
Bq         4.3296721976    -1.5882507187     1.5602504474
Bq         4.5864608408    -1.4459741284     0.6043127064
Bq         4.4580665192    -1.5171124236     1.0822815769
Bq         4.4286966044    -1.4323573886     1.1916158906
Bq         4.4800543330    -1.4039020705     1.0004283424
Bq         4.4030177400    -1.4465850476     1.2872096647
Bq         4.5057331973    -1.3896744115     0.9048345683
Bq         4.3773388757    -1.4608127066     1.3828034388
Bq         4.5314120616    -1.3754467524     0.8092407942
Bq         4.3516600114    -1.4750403656     1.4783972129
Bq         4.5570909260    -1.3612190934     0.7136470201
Bq         4.3259811471    -1.4892680247     1.5739909869
Bq         4.5827697903    -1.3469914344     0.6180532460
Bq         4.4543754687    -1.4181297295     1.0960221165
Bq         4.4250055538    -1.3333746945     1.2053564301
Bq         4.4763632825    -1.3049193765     1.0141688819
Bq         4.3993266895    -1.3476023536     1.3009502042
Bq         4.5020421468    -1.2906917174     0.9185751078
Bq         4.3736478252    -1.3618300126     1.3965439783
Bq         4.5277210111    -1.2764640584     0.8229813337
Bq         4.3479689609    -1.3760576716     1.4921377524
Bq         4.5533998754    -1.2622363994     0.7273875597
Bq         4.3222900965    -1.3902853306     1.5877315265
Bq         4.5790787398    -1.2480087404     0.6317937856
Bq         4.4506844181    -1.3191470355     1.1097626560
Bq         4.4213145033    -1.2343920005     1.2190969697
Bq         4.4726722319    -1.2059366824     1.0279094215
Bq         4.3956356390    -1.2486196595     1.3146907438
Bq         4.4983510963    -1.1917090234     0.9323156474
Bq         4.3699567746    -1.2628473185     1.4102845179
Bq         4.5240299606    -1.1774813644     0.8367218733
Bq         4.3442779103    -1.2770749776     1.5058782920
Bq         4.5497088249    -1.1632537054     0.7411280992
Bq         4.3185990460    -1.2913026366     1.6014720661
Bq         4.5753876892    -1.1490260463     0.6455343251
Bq         4.4469933676    -1.2201643415     1.1235031956
Bq         4.4176234528    -1.1354093065     1.2328375092
Bq         4.4689811814    -1.1069539884     1.0416499611
Bq         4.3919445884    -1.1496369655     1.3284312833
Bq         4.4946600457    -1.0927263294     0.9460561870
Bq         4.3662657241    -1.1638646245     1.4240250574
Bq         4.5203389100    -1.0784986703     0.8504624129
Bq         4.3405868598    -1.1780922835     1.5196188315
Bq         4.5460177744    -1.0642710113     0.7548686388
Bq         4.3149079955    -1.1923199426     1.6152126056
Bq         4.5716966387    -1.0500433523     0.6592748647
Bq         4.4433023171    -1.1211816474     1.1372437351
Bq         4.4139324022    -1.0364266124     1.2465780488
Bq         4.4652901309    -1.0079712944     1.0553905006
Bq         4.3882535379    -1.0506542714     1.3421718229
Bq         4.4909689952    -0.9937436353     0.9597967265
Bq         4.3625746736    -1.0648819305     1.4377655970
Bq         4.5166478595    -0.9795159763     0.8642029524
Bq         4.3368958092    -1.0791095895     1.5333593711
Bq         4.5423267238    -0.9652883173     0.7686091783
Bq         4.3112169449    -1.0933372485     1.6289531452
Bq         4.5680055882    -0.9510606583     0.6730154042
Bq         4.4396112665    -1.0221989534     1.1509842747
Bq         4.4102413517    -0.9374439184     1.2603185884
Bq         4.4615990803    -0.9089886003     1.0691310402
Bq         4.3845624874    -0.9516715774     1.3559123625
Bq         4.4872779446    -0.8947609413     0.9735372661
Bq         4.3588836230    -0.9658992364     1.4515061366
Bq         4.5129568090    -0.8805332823     0.8779434920
Bq         4.3332047587    -0.9801268955     1.5470999106
Bq         4.5386356733    -0.8663056232     0.7823497179
Bq         4.3075258944    -0.9943545545     1.6426936847
Bq         4.5643145376    -0.8520779642     0.6867559438
Bq         4.4359202160    -0.9232162594     1.1647248143
Bq         4.4065503011    -0.8384612243     1.2740591279
Bq         4.4579080298    -0.8100059063     1.0828715797
Bq         4.3808714368    -0.8526888834     1.3696529020
Bq         4.4835868941    -0.7957782473     0.9872778056
Bq         4.3551925725    -0.8669165424     1.4652466761
Bq         4.5092657584    -0.7815505882     0.8916840315
Bq         4.3295137082    -0.8811442014     1.5608404502
Bq         4.5349446228    -0.7673229292     0.7960902574
Bq         4.3038348439    -0.8953718605     1.6564342243
Bq         4.5606234871    -0.7530952702     0.7004964834
Bq         4.4322291655    -0.8242335653     1.1784653538
Bq         4.4028592506    -0.7394785303     1.2877996675
Bq         4.4542169793    -0.7110232123     1.0966121193
Bq         4.3771803863    -0.7537061893     1.3833934416
Bq         4.4798958436    -0.6967955532     1.0010183452
Bq         4.3515015220    -0.7679338484     1.4789872157
Bq         4.5055747079    -0.6825678942     0.9054245711
Bq         4.3258226576    -0.7821615074     1.5745809898
Bq         4.5312535722    -0.6683402352     0.8098307970
Bq         4.3001437933    -0.7963891664     1.6701747639
Bq         4.5569324365    -0.6541125761     0.7142370229
Bq         4.4285381149    -0.7252508713     1.1922058934
Bq         4.3991682001    -0.6404958363     1.3015402070
Bq         4.4505259287    -0.6120405182     1.1103526588
Bq         4.3734893358    -0.6547234953     1.3971339811
Bq         4.4762047930    -0.5978128592     1.0147588848
Bq         4.3478104714    -0.6689511543     1.4927277552
Bq         4.5018836574    -0.5835852002     0.9191651107
Bq         4.3221316071    -0.6831788134     1.5883215293
Bq         4.5275625217    -0.5693575411     0.8235713366
Bq         4.2964527428    -0.6974064724     1.6839153034
Bq         4.5532413860    -0.5551298821     0.7279775625
Bq         4.4248470644    -0.6262681772     1.2059464329
Bq         4.3954771495    -0.5415131422     1.3152807466
Bq         4.4468348782    -0.5130578242     1.1240931984
Bq         4.3697982852    -0.5557408013     1.4108745207
Bq         4.4725137425    -0.4988301652     1.0284994243
Bq         4.3441194209    -0.5699684603     1.5064682948
Bq         4.4981926068    -0.4846025061     0.9329056502
Bq         4.3184405566    -0.5841961193     1.6020620689
Bq         4.5238714712    -0.4703748471     0.8373118761
Bq         4.2927616922    -0.5984237784     1.6976558430
Bq         4.5495503355    -0.4561471881     0.7417181020
Bq         4.4211560139    -0.5272854832     1.2196869725
Bq         4.3917860990    -0.4425304482     1.3290212862
Bq         4.4431438276    -0.4140751301     1.1378337380
Bq         4.3661072347    -0.4567581072     1.4246150603
Bq         4.4688226920    -0.3998474711     1.0422399639
Bq         4.3404283704    -0.4709857663     1.5202088343
Bq         4.4945015563    -0.3856198121     0.9466461898
Bq         4.3147495060    -0.4852134253     1.6158026084

1
2
3
4
5
6
7
8
9
10
11
12
13
14
15
16
17
18
19
20
21
22
23
24
25
26
27
28
29
30
31
32
33
34
35
36
37
38
39
40
41
42
43
44
45
46
47
48
49
50
51
52
53
54
55
56
57
58
59
60
61
62
63
64
65
66
67
68
69
70
71
72
73
74
75
76
77
78
79
80
81
82
83
84
85
86
87
88
89
90
91
92
93
94
95
96
97
98
99
100
101
102
103
104
105
106
107
108
109
110
111
112
113
114
115
116
117
118
119
120
121
122
123
124
125
126
127
128
129
130
131
132
133
134
135
136
137
138
139
140
141
142
143
144
145
146
147
148
149
150
151
152
153
154
155
156
157
158
159
160
161
162
163
164
165
166
167
168
169
170
171
172
173
174
175
176
177
178
179
180
181
182
183
184
185
186
187
188
189
190
191
192
193
194
195
196
197
198
199
200
201
202
203
204
205
206
207
208
209
210
211
212
213
214
215
216
217
218
219
220
221
222
223
224
225
226
227
228
229
230
231
232
233
234
235
236

