%nproc=8
%mem=1000MB
# rb3lyp/6-311+g** NMR geom=connectivity

Title

0 1
C    -4.0500558   -0.5771862    0.8136712
H    -5.0263804   -1.0082727    1.0024760
C    -3.9381552    0.6617804    0.2400876
H    -4.8252424    1.2338890   -0.0111295
C    -2.6768410    1.2433246    0.0057578
C    -1.4974121    0.5051527    0.2848253
C    -1.6508332   -0.7338728    0.9404026
H    -0.7713646   -1.2730967    1.2633753
C    -2.8898548   -1.2624035    1.1994307
H    -2.9683706   -2.2124563    1.7152676
C    -2.5773185    2.5963696   -0.4192930
H    -3.4870728    3.1412239   -0.6474055
C    -1.3741895    3.2147896   -0.4364030
H    -1.2997315    4.2742019   -0.6578144
C    -0.1719488    2.4994090   -0.1734588
C    -0.2043917    1.1018437    0.0192689
C     1.0513491    3.2042560   -0.0676222
H     1.0427344    4.2819499   -0.1896997
C     2.1942091    2.5487446    0.2579577
H     3.1168527    3.0912848    0.4334727
C     2.2216473    1.1336562    0.2934990
C     1.0486931    0.3945528    0.0302412
C     3.4483363    0.4614633    0.5573939
H     4.3095794    1.0606054    0.8334846
C     3.5427346   -0.8855926    0.4749463
H     4.4731467   -1.3939704    0.7038822
C     2.4490052   -1.6474447   -0.0196319
C     1.2150704   -1.0057258   -0.3013573
C     0.2531113   -1.7434440   -1.0216591
H    -0.6541356   -1.2535051   -1.3462847
C     0.4494193   -3.0628597   -1.3413779
H    -0.3083162   -3.5944309   -1.9054060
C     1.6251726   -3.7207967   -0.9552541
H     1.7670048   -4.7687404   -1.1927019
C     2.6109872   -3.0144177   -0.3183050
H     3.5525612   -3.4902813   -0.0646367
Bq        -3.8228650956     1.4969381896    -0.0200183469
Bq        -3.8574429275     1.7178820460     0.8517546659
Bq        -3.8190231142     1.4723888722    -0.1168820150
Bq        -3.8382330209     1.5951354591     0.3674363254
Bq        -3.8411020480     1.7166246084     0.4397699641
Bq        -3.8334180853     1.6675259737     0.2460426279
Bq        -3.8449440293     1.7411739258     0.5366336322
Bq        -3.8295761040     1.6429766563     0.1491789598
Bq        -3.8487860106     1.7657232432     0.6334973003
Bq        -3.8257341227     1.6184273389     0.0523152917
Bq        -3.8526279920     1.7902725606     0.7303609684
Bq        -3.8218921413     1.5938780216    -0.0445483764
Bq        -3.8564699733     1.8148218779     0.8272246364
Bq        -3.8180501600     1.5693287042    -0.1414120445
Bq        -3.8372600666     1.6920752911     0.3429062960
Bq        -3.8401290937     1.8135644404     0.4152399347
Bq        -3.8324451311     1.7644658056     0.2215125985
Bq        -3.8439710751     1.8381137578     0.5121036027
Bq        -3.8286031498     1.7399164882     0.1246489304
Bq        -3.8478130564     1.8626630751     0.6089672708
Bq        -3.8247611684     1.7153671709     0.0277852623
Bq        -3.8516550377     1.8872123925     0.7058309389
Bq        -3.8209191871     1.6908178535    -0.0690784058
Bq        -3.8554970191     1.9117617099     0.8026946070
Bq        -3.8170772058     1.6662685361    -0.1659420739
Bq        -3.8362871124     1.7890151230     0.3183762666
Bq        -3.8391561395     1.9105042723     0.3907099052
Bq        -3.8314721769     1.8614056376     0.1969825690
Bq        -3.8429981209     1.9350535897     0.4875735733
Bq        -3.8276301955     1.8368563202     0.1001189010
Bq        -3.8468401022     1.9596029071     0.5844372414
Bq        -3.8237882142     1.8123070028     0.0032552329
Bq        -3.8506820835     1.9841522244     0.6813009095
Bq        -3.8199462329     1.7877576854    -0.0936084352
Bq        -3.8545240648     2.0087015418     0.7781645776
Bq        -3.8161042515     1.7632083681    -0.1904721033
Bq        -3.8353141582     1.8859549549     0.2938462371
Bq        -3.8381831853     2.0074441043     0.3661798758
Bq        -3.8304992226     1.9583454695     0.1724525396
Bq        -3.8420251666     2.0319934216     0.4630435439
Bq        -3.8266572413     1.9337961521     0.0755888715
Bq        -3.8458671480     2.0565427390     0.5599072120
Bq        -3.8228152600     1.9092468348    -0.0212747966
Bq        -3.8497091293     2.0810920564     0.6567708801
Bq        -3.8189732787     1.8846975174    -0.1181384646
Bq        -3.8535511106     2.1056413738     0.7536345482
Bq        -3.8151312973     1.8601482000    -0.2150021327
Bq        -3.8343412040     1.9828947869     0.2693162077
Bq        -3.8372102311     2.1043839362     0.3416498464
Bq        -3.8295262684     2.0552853014     0.1479225102
Bq        -3.8410522124     2.1289332536     0.4385135145
Bq        -3.8256842871     2.0307359841     0.0510588421
Bq        -3.8448941937     2.1534825709     0.5353771826
Bq        -3.8218423058     2.0061866667    -0.0458048260
Bq        -3.8487361751     2.1780318883     0.6322408506
Bq        -3.8180003244     1.9816373493    -0.1426684941
Bq        -3.8525781564     2.2025812057     0.7291045187
Bq        -3.8141583431     1.9570880319    -0.2395321622
Bq        -3.8333682497     2.0798346188     0.2447861783
Bq        -3.8362372768     2.2013237681     0.3171198169
Bq        -3.8285533142     2.1522251334     0.1233924808
Bq        -3.8400792582     2.2258730855     0.4139834850
Bq        -3.8247113329     2.1276758160     0.0265288127
Bq        -3.8439212395     2.2504224029     0.5108471531
Bq        -3.8208693515     2.1031264986    -0.0703348554
Bq        -3.8477632208     2.2749717203     0.6077108212
Bq        -3.8170273702     2.0785771813    -0.1671985235
Bq        -3.8516052022     2.2995210376     0.7045744893
Bq        -3.8131853889     2.0540278639    -0.2640621916
Bq        -3.8323952955     2.1767744508     0.2202561489
Bq        -3.8352643226     2.2982636001     0.2925897875
Bq        -3.8275803600     2.2491649653     0.0988624513
Bq        -3.8391063040     2.3228129174     0.3894534556
Bq        -3.8237383786     2.2246156479     0.0019987833
Bq        -3.8429482853     2.3473622348     0.4863171237
Bq        -3.8198963973     2.2000663306    -0.0948648848
Bq        -3.8467902666     2.3719115522     0.5831807918
Bq        -3.8160544160     2.1755170132    -0.1917285529
Bq        -3.8506322479     2.3964608696     0.6800444599
Bq        -3.8122124347     2.1509676958    -0.2885922210
Bq        -3.8314223413     2.2737142827     0.1957261194
Bq        -3.8342913684     2.3952034320     0.2680597581
Bq        -3.8266074057     2.3461047973     0.0743324219
Bq        -3.8381333497     2.4197527494     0.3649234262
Bq        -3.8227654244     2.3215554799    -0.0225312462
Bq        -3.8419753311     2.4443020668     0.4617870943
Bq        -3.8189234431     2.2970061625    -0.1193949143
Bq        -3.8458173124     2.4688513841     0.5586507624
Bq        -3.8150814618     2.2724568451    -0.2162585824
Bq        -3.8496592937     2.4934007015     0.6555144305
Bq        -3.8112394804     2.2479075278    -0.3131222504
Bq        -3.8304493871     2.3706541146     0.1711960900
Bq        -3.8333184142     2.4921432640     0.2435297287
Bq        -3.8256344515     2.4430446292     0.0498023925
Bq        -3.8371603955     2.5166925813     0.3403933968
Bq        -3.8217924702     2.4184953118    -0.0470612756
Bq        -3.8410023768     2.5412418987     0.4372570648
Bq        -3.8179504889     2.3939459944    -0.1439249437
Bq        -3.8448443582     2.5657912161     0.5341207329
Bq        -3.8141085075     2.3693966771    -0.2407886118
Bq        -3.8486863395     2.5903405335     0.6309844010
Bq        -3.8102665262     2.3448473597    -0.3376522799
Bq        -3.8294764328     2.4675939466     0.1466660606
Bq        -3.8323454600     2.5890830959     0.2189996992
Bq        -3.8246614973     2.5399844611     0.0252723631
Bq        -3.8361874413     2.6136324133     0.3158633673
Bq        -3.8208195160     2.5154351438    -0.0715913050
Bq        -3.8400294226     2.6381817306     0.4127270354
Bq        -3.8169775346     2.4908858264    -0.1684549731
Bq        -3.8438714039     2.6627310480     0.5095907035
Bq        -3.8131355533     2.4663365090    -0.2653186412
Bq        -3.8477133853     2.6872803654     0.6064543716
Bq        -3.8092935720     2.4417871916    -0.3621823093
Bq        -3.8285034786     2.5645337785     0.1221360311
Bq        -3.8313725057     2.6860229278     0.1944696698
Bq        -3.8236885431     2.6369242931     0.0007423336
Bq        -3.8352144871     2.7105722452     0.2913333379
Bq        -3.8198465617     2.6123749757    -0.0961213345
Bq        -3.8390564684     2.7351215626     0.3881970060
Bq        -3.8160045804     2.5878256583    -0.1929850025
Bq        -3.8428984497     2.7596708800     0.4850606741
Bq        -3.8121625991     2.5632763409    -0.2898486706
Bq        -3.8467404310     2.7842201973     0.5819243422
Bq        -3.8083206178     2.5387270236    -0.3867123387
Bq        -3.8275305244     2.6614736105     0.0976060017
Bq        -3.8303995515     2.7829627598     0.1699396404
Bq        -3.8227155888     2.7338641250    -0.0237876958
Bq        -3.8342415328     2.8075120771     0.2668033085
Bq        -3.8188736075     2.7093148076    -0.1206513639
Bq        -3.8380835142     2.8320613945     0.3636669766
Bq        -3.8150316262     2.6847654903    -0.2175150320
Bq        -3.8419254955     2.8566107119     0.4605306447
Bq        -3.8111896449     2.6602161729    -0.3143787001
Bq        -3.8457674768     2.8811600293     0.5573943127
Bq        -3.8073476635     2.6356668555    -0.4112423682
Bq        -3.8265575702     2.7584134424     0.0730759723
Bq        -3.8294265973     2.8799025917     0.1454096110
Bq        -3.8217426346     2.8308039570    -0.0483177252
Bq        -3.8332685786     2.9044519091     0.2422732790
Bq        -3.8179006533     2.8062546396    -0.1451813933
Bq        -3.8371105599     2.9290012265     0.3391369471
Bq        -3.8140586720     2.7817053222    -0.2420450614
Bq        -3.8409525413     2.9535505438     0.4360006152
Bq        -3.8102166906     2.7571560048    -0.3389087295
Bq        -3.8447945226     2.9780998612     0.5328642833
Bq        -3.8063747093     2.7326066875    -0.4357723976
Bq        -3.8255846159     2.8553532743     0.0485459429
Bq        -3.8284536431     2.9768424236     0.1208795815
Bq        -3.8207696804     2.9277437889    -0.0728477546
Bq        -3.8322956244     3.0013917410     0.2177432496
Bq        -3.8169276991     2.9031944715    -0.1697114227
Bq        -3.8361376057     3.0259410584     0.3146069177
Bq        -3.8130857177     2.8786451541    -0.2665750908
Bq        -3.8399795870     3.0504903758     0.4114705858
Bq        -3.8092437364     2.8540958368    -0.3634387589
Bq        -3.8438215684     3.0750396931     0.5083342539
Bq        -3.8054017551     2.8295465194    -0.4603024270
Bq        -3.8246116617     2.9522931063     0.0240159134
Bq        -3.8274806888     3.0737822556     0.0963495521
Bq        -3.8197967262     3.0246836208    -0.0973777841
Bq        -3.8313226702     3.0983315730     0.1932132202
Bq        -3.8159547448     3.0001343035    -0.1942414522
Bq        -3.8351646515     3.1228808903     0.2900768883
Bq        -3.8121127635     2.9755849861    -0.2911051203
Bq        -3.8390066328     3.1474302077     0.3869405564
Bq        -3.8082707822     2.9510356687    -0.3879687883
Bq        -3.8428486141     3.1719795251     0.4838042245
Bq        -3.8044288009     2.9264863513    -0.4848324564
Bq        -3.8236387075     3.0492329382    -0.0005141160
Bq        -3.8265077346     3.1707220875     0.0718195227
Bq        -3.8188237719     3.1216234528    -0.1219078135
Bq        -3.8303497159     3.1952714049     0.1686831908
Bq        -3.8149817906     3.0970741354    -0.2187714816
Bq        -3.8341916973     3.2198207223     0.2655468589
Bq        -3.8111398093     3.0725248180    -0.3156351497
Bq        -3.8380336786     3.2443700397     0.3624105269
Bq        -3.8072978280     3.0479755006    -0.4124988178
Bq        -3.8418756599     3.2689193570     0.4592741950
Bq        -3.8034558466     3.0234261833    -0.5093624859
Bq        -3.8226657533     3.1461727701    -0.0250441454
Bq        -3.8255347804     3.2676619195     0.0472894932
Bq        -3.8178508177     3.2185632847    -0.1464378429
Bq        -3.8293767617     3.2922112368     0.1441531613
Bq        -3.8140088364     3.1940139673    -0.2433015110
Bq        -3.8332187430     3.3167605542     0.2410168294
Bq        -3.8101668551     3.1694646500    -0.3401651791
Bq        -3.8370607244     3.3413098716     0.3378804975
Bq        -3.8063248737     3.1449153326    -0.4370288472
Bq        -3.8409027057     3.3658591890     0.4347441656
Bq        -3.8024828924     3.1203660152    -0.5338925153
Bq        -3.8216927991     3.2431126021    -0.0495741748
Bq        -3.8245618262     3.3646017514     0.0227594638
Bq        -3.8168778635     3.3155031167    -0.1709678724
Bq        -3.8284038075     3.3891510688     0.1196231319
Bq        -3.8130358822     3.2909537993    -0.2678315404
Bq        -3.8322457888     3.4137003862     0.2164868000
Bq        -3.8091939008     3.2664044819    -0.3646952085
Bq        -3.8360877701     3.4382497035     0.3133504681
Bq        -3.8053519195     3.2418551645    -0.4615588766
Bq        -3.8399297515     3.4627990209     0.4102141362

1
2
3
4
5
6
7
8
9
10
11
12
13
14
15
16
17
18
19
20
21
22
23
24
25
26
27
28
29
30
31
32
33
34
35
36
37
38
39
40
41
42
43
44
45
46
47
48
49
50
51
52
53
54
55
56
57
58
59
60
61
62
63
64
65
66
67
68
69
70
71
72
73
74
75
76
77
78
79
80
81
82
83
84
85
86
87
88
89
90
91
92
93
94
95
96
97
98
99
100
101
102
103
104
105
106
107
108
109
110
111
112
113
114
115
116
117
118
119
120
121
122
123
124
125
126
127
128
129
130
131
132
133
134
135
136
137
138
139
140
141
142
143
144
145
146
147
148
149
150
151
152
153
154
155
156
157
158
159
160
161
162
163
164
165
166
167
168
169
170
171
172
173
174
175
176
177
178
179
180
181
182
183
184
185
186
187
188
189
190
191
192
193
194
195
196
197
198
199
200
201
202
203
204
205
206
207
208
209
210
211
212
213
214
215
216
217
218
219
220
221
222
223
224
225
226
227
228
229
230
231
232
233
234
235
236

