%nproc=8
%mem=1000MB
# rb3lyp/6-311+g** NMR geom=connectivity

Title

0 1
C    -4.0500558   -0.5771862    0.8136712
H    -5.0263804   -1.0082727    1.0024760
C    -3.9381552    0.6617804    0.2400876
H    -4.8252424    1.2338890   -0.0111295
C    -2.6768410    1.2433246    0.0057578
C    -1.4974121    0.5051527    0.2848253
C    -1.6508332   -0.7338728    0.9404026
H    -0.7713646   -1.2730967    1.2633753
C    -2.8898548   -1.2624035    1.1994307
H    -2.9683706   -2.2124563    1.7152676
C    -2.5773185    2.5963696   -0.4192930
H    -3.4870728    3.1412239   -0.6474055
C    -1.3741895    3.2147896   -0.4364030
H    -1.2997315    4.2742019   -0.6578144
C    -0.1719488    2.4994090   -0.1734588
C    -0.2043917    1.1018437    0.0192689
C     1.0513491    3.2042560   -0.0676222
H     1.0427344    4.2819499   -0.1896997
C     2.1942091    2.5487446    0.2579577
H     3.1168527    3.0912848    0.4334727
C     2.2216473    1.1336562    0.2934990
C     1.0486931    0.3945528    0.0302412
C     3.4483363    0.4614633    0.5573939
H     4.3095794    1.0606054    0.8334846
C     3.5427346   -0.8855926    0.4749463
H     4.4731467   -1.3939704    0.7038822
C     2.4490052   -1.6474447   -0.0196319
C     1.2150704   -1.0057258   -0.3013573
C     0.2531113   -1.7434440   -1.0216591
H    -0.6541356   -1.2535051   -1.3462847
C     0.4494193   -3.0628597   -1.3413779
H    -0.3083162   -3.5944309   -1.9054060
C     1.6251726   -3.7207967   -0.9552541
H     1.7670048   -4.7687404   -1.1927019
C     2.6109872   -3.0144177   -0.3183050
H     3.5525612   -3.4902813   -0.0646367
Bq        -1.7631341826     0.0931967828     1.0368726736
Bq        -1.7477662573    -0.0050004867     0.6494180012
Bq        -1.7669761640     0.1177461002     1.1337363417
Bq        -1.7439242760    -0.0295498040     0.5525543331
Bq        -1.7708181453     0.1422954176     1.2306000098
Bq        -1.7400822946    -0.0540991214     0.4556906650
Bq        -1.7746601266     0.1668447350     1.3274636779
Bq        -1.7362403133    -0.0786484388     0.3588269970
Bq        -1.7554502200     0.0440981481     0.8431453374
Bq        -1.7583192471     0.1655872974     0.9154789761
Bq        -1.7506352844     0.1164886627     0.7217516399
Bq        -1.7621612284     0.1901366148     1.0123426442
Bq        -1.7467933031     0.0919393453     0.6248879718
Bq        -1.7660032097     0.2146859322     1.1092063122
Bq        -1.7429513218     0.0673900279     0.5280243037
Bq        -1.7698451911     0.2392352495     1.2060699803
Bq        -1.7391093404     0.0428407105     0.4311606356
Bq        -1.7736871724     0.2637845669     1.3029336484
Bq        -1.7352673591     0.0182913932     0.3342969675
Bq        -1.7544772657     0.1410379800     0.8186153080
Bq        -1.7573462928     0.2625271294     0.8909489466
Bq        -1.7496623302     0.2134284946     0.6972216105
Bq        -1.7611882742     0.2870764467     0.9878126147
Bq        -1.7458203489     0.1888791772     0.6003579424
Bq        -1.7650302555     0.3116257641     1.0846762828
Bq        -1.7419783675     0.1643298598     0.5034942743
Bq        -1.7688722368     0.3361750815     1.1815399509
Bq        -1.7381363862     0.1397805425     0.4066306062
Bq        -1.7727142182     0.3607243989     1.2784036190
Bq        -1.7342944049     0.1152312251     0.3097669381
Bq        -1.7535043115     0.2379778120     0.7940852785
Bq        -1.7563733386     0.3594669613     0.8664189172
Bq        -1.7486893760     0.3103683265     0.6726915810
Bq        -1.7602153200     0.3840162787     0.9632825853
Bq        -1.7448473946     0.2858190092     0.5758279129
Bq        -1.7640573013     0.4085655960     1.0601462534
Bq        -1.7410054133     0.2612696918     0.4789642448
Bq        -1.7678992826     0.4331149134     1.1570099215
Bq        -1.7371634320     0.2367203744     0.3821005768
Bq        -1.7717412639     0.4576642308     1.2538735896
Bq        -1.7333214506     0.2121710570     0.2852369087
Bq        -1.7525313573     0.3349176439     0.7695552491
Bq        -1.7554003844     0.4564067932     0.8418888878
Bq        -1.7477164217     0.4073081585     0.6481615516
Bq        -1.7592423657     0.4809561106     0.9387525559
Bq        -1.7438744404     0.3827588411     0.5512978835
Bq        -1.7630843471     0.5055054280     1.0356162240
Bq        -1.7400324591     0.3582095237     0.4544342154
Bq        -1.7669263284     0.5300547454     1.1324798921
Bq        -1.7361904778     0.3336602064     0.3575705473
Bq        -1.7707683097     0.5546040627     1.2293435601
Bq        -1.7323484964     0.3091108890     0.2607068792
Bq        -1.7515584031     0.4318574759     0.7450252197
Bq        -1.7544274302     0.5533466252     0.8173588584
Bq        -1.7467434675     0.5042479904     0.6236315222
Bq        -1.7582694115     0.5778959425     0.9142225264
Bq        -1.7429014862     0.4796986730     0.5267678541
Bq        -1.7621113928     0.6024452599     1.0110861945
Bq        -1.7390595049     0.4551493557     0.4299041860
Bq        -1.7659533742     0.6269945773     1.1079498626
Bq        -1.7352175235     0.4306000383     0.3330405179
Bq        -1.7697953555     0.6515438947     1.2048135307
Bq        -1.7313755422     0.4060507209     0.2361768498
Bq        -1.7505854488     0.5287973078     0.7204951903
Bq        -1.7534544759     0.6502864571     0.7928288289
Bq        -1.7457705133     0.6011878224     0.5991014927
Bq        -1.7572964573     0.6748357745     0.8896924970
Bq        -1.7419285320     0.5766385050     0.5022378247
Bq        -1.7611384386     0.6993850919     0.9865561651
Bq        -1.7380865506     0.5520891876     0.4053741566
Bq        -1.7649804199     0.7239344092     1.0834198332
Bq        -1.7342445693     0.5275398702     0.3085104885
Bq        -1.7688224013     0.7484837266     1.1802835013
Bq        -1.7304025880     0.5029905529     0.2116468204
Bq        -1.7496124946     0.6257371397     0.6959651608
Bq        -1.7524815217     0.7472262890     0.7682987995
Bq        -1.7447975591     0.6981276543     0.5745714633
Bq        -1.7563235031     0.7717756064     0.8651624676
Bq        -1.7409555777     0.6735783369     0.4777077952
Bq        -1.7601654844     0.7963249238     0.9620261357
Bq        -1.7371135964     0.6490290195     0.3808441271
Bq        -1.7640074657     0.8208742412     1.0588898038
Bq        -1.7332716151     0.6244797022     0.2839804591
Bq        -1.7678494470     0.8454235585     1.1557534719
Bq        -1.7294296337     0.5999303848     0.1871167910
Bq        -1.7486395404     0.7226769717     0.6714351314
Bq        -1.7515085675     0.8441661210     0.7437687701
Bq        -1.7438246048     0.7950674862     0.5500414339
Bq        -1.7553505488     0.8687154384     0.8406324382
Bq        -1.7399826235     0.7705181689     0.4531777658
Bq        -1.7591925302     0.8932647557     0.9374961063
Bq        -1.7361406422     0.7459688515     0.3563140977
Bq        -1.7630345115     0.9178140731     1.0343597743
Bq        -1.7322986609     0.7214195341     0.2594504296
Bq        -1.7668764928     0.9423633905     1.1312234424
Bq        -1.7284566795     0.6968702167     0.1625867615
Bq        -1.7476665862     0.8196168036     0.6469051020
Bq        -1.7505356133     0.9411059529     0.7192387406
Bq        -1.7428516506     0.8920073182     0.5255114045
Bq        -1.7543775946     0.9656552703     0.8161024087
Bq        -1.7390096693     0.8674580008     0.4286477364
Bq        -1.7582195759     0.9902045877     0.9129660768
Bq        -1.7351676880     0.8429086834     0.3317840683
Bq        -1.7620615573     1.0147539051     1.0098297449
Bq        -1.7313257066     0.8183593660     0.2349204002
Bq        -1.7659035386     1.0393032224     1.1066934130
Bq        -1.7274837253     0.7938100487     0.1380567321
Bq        -1.7466936319     0.9165566355     0.6223750726
Bq        -1.7495626591     1.0380457849     0.6947087112
Bq        -1.7418786964     0.9889471501     0.5009813750
Bq        -1.7534046404     1.0625951022     0.7915723793
Bq        -1.7380367151     0.9643978327     0.4041177069
Bq        -1.7572466217     1.0871444196     0.8884360474
Bq        -1.7341947337     0.9398485154     0.3072540389
Bq        -1.7610886030     1.1116937370     0.9852997155
Bq        -1.7303527524     0.9152991980     0.2103903708
Bq        -1.7649305844     1.1362430544     1.0821633836
Bq        -1.7265107711     0.8907498806     0.1135267027
Bq        -1.7457206777     1.0134964675     0.5978450431
Bq        -1.7485897048     1.1349856168     0.6701786818
Bq        -1.7409057422     1.0858869821     0.4764513456
Bq        -1.7524316862     1.1595349342     0.7670423499
Bq        -1.7370637608     1.0613376647     0.3795876775
Bq        -1.7562736675     1.1840842516     0.8639060180
Bq        -1.7332217795     1.0367883473     0.2827240094
Bq        -1.7601156488     1.2086335689     0.9607696861
Bq        -1.7293797982     1.0122390299     0.1858603413
Bq        -1.7639576301     1.2331828863     1.0576333542
Bq        -1.7255378169     0.9876897125     0.0889966733
Bq        -1.7447477235     1.1104362994     0.5733150137
Bq        -1.7476167506     1.2319254487     0.6456486524
Bq        -1.7399327879     1.1828268140     0.4519213162
Bq        -1.7514587319     1.2564747661     0.7425123205
Bq        -1.7360908066     1.1582774966     0.3550576481
Bq        -1.7553007133     1.2810240835     0.8393759885
Bq        -1.7322488253     1.1337281792     0.2581939800
Bq        -1.7591426946     1.3055734009     0.9362396566
Bq        -1.7284068440     1.1091788619     0.1613303119
Bq        -1.7629846759     1.3301227182     1.0331033247
Bq        -1.7245648626     1.0846295445     0.0644666438
Bq        -1.7437747693     1.2073761314     0.5487849843
Bq        -1.7466437964     1.3288652807     0.6211186229
Bq        -1.7389598337     1.2797666459     0.4273912868
Bq        -1.7504857777     1.3534145981     0.7179822910
Bq        -1.7351178524     1.2552173286     0.3305276187
Bq        -1.7543277590     1.3779639154     0.8148459591
Bq        -1.7312758711     1.2306680112     0.2336639506
Bq        -1.7581697404     1.4025132328     0.9117096272
Bq        -1.7274338897     1.2061186938     0.1368002825
Bq        -1.7620117217     1.4270625502     1.0085732953
Bq        -1.7235919084     1.1815693764     0.0399366144
Bq        -1.7428018150     1.3043159633     0.5242549548
Bq        -1.7456708422     1.4258051126     0.5965885935
Bq        -1.7379868795     1.3767064779     0.4028612573
Bq        -1.7495128235     1.4503544300     0.6934522616
Bq        -1.7341448982     1.3521571605     0.3059975892
Bq        -1.7533548048     1.4749037474     0.7903159297
Bq        -1.7303029168     1.3276078431     0.2091339212
Bq        -1.7571967861     1.4994530647     0.8871795978
Bq        -1.7264609355     1.3030585257     0.1122702531
Bq        -1.7610387675     1.5240023821     0.9840432659
Bq        -1.7226189542     1.2785092084     0.0154065850
Bq        -1.7418288608     1.4012557952     0.4997249254
Bq        -1.7446978879     1.5227449446     0.5720585641
Bq        -1.7370139253     1.4736463098     0.3783312279
Bq        -1.7485398693     1.5472942619     0.6689222322
Bq        -1.7331719439     1.4490969924     0.2814675598
Bq        -1.7523818506     1.5718435793     0.7657859003
Bq        -1.7293299626     1.4245476751     0.1846038917
Bq        -1.7562238319     1.5963928967     0.8626495684
Bq        -1.7254879813     1.3999983577     0.0877402236
Bq        -1.7600658132     1.6209422141     0.9595132364
Bq        -1.7216460000     1.3754490403    -0.0091234445
Bq        -1.7408559066     1.4981956272     0.4751948960
Bq        -1.7437249337     1.6196847765     0.5475285347
Bq        -1.7360409710     1.5705861417     0.3538011985
Bq        -1.7475669150     1.6442340939     0.6443922027
Bq        -1.7321989897     1.5460368244     0.2569375304
Bq        -1.7514088964     1.6687834113     0.7412558708
Bq        -1.7283570084     1.5214875070     0.1600738623
Bq        -1.7552508777     1.6933327286     0.8381195389
Bq        -1.7245150271     1.4969381896     0.0632101942
Bq        -1.7590928590     1.7178820460     0.9349832070
Bq        -1.7206730457     1.4723888722    -0.0336534739
Bq        -1.7398829524     1.5951354591     0.4506648666
Bq        -1.7427519795     1.7166246084     0.5229985052
Bq        -1.7350680168     1.6675259737     0.3292711690
Bq        -1.7465939608     1.7411739258     0.6198621733
Bq        -1.7312260355     1.6429766563     0.2324075010
Bq        -1.7504359421     1.7657232432     0.7167258414
Bq        -1.7273840542     1.6184273389     0.1355438329
Bq        -1.7542779235     1.7902725606     0.8135895095
Bq        -1.7235420728     1.5938780216     0.0386801648
Bq        -1.7581199048     1.8148218779     0.9104531776
Bq        -1.7197000915     1.5693287042    -0.0581835033
Bq        -1.7389099982     1.6920752911     0.4261348371
Bq        -1.7417790253     1.8135644404     0.4984684758
Bq        -1.7340950626     1.7644658056     0.3047411396
Bq        -1.7456210066     1.8381137578     0.5953321439
Bq        -1.7302530813     1.7399164882     0.2078774715

1
2
3
4
5
6
7
8
9
10
11
12
13
14
15
16
17
18
19
20
21
22
23
24
25
26
27
28
29
30
31
32
33
34
35
36
37
38
39
40
41
42
43
44
45
46
47
48
49
50
51
52
53
54
55
56
57
58
59
60
61
62
63
64
65
66
67
68
69
70
71
72
73
74
75
76
77
78
79
80
81
82
83
84
85
86
87
88
89
90
91
92
93
94
95
96
97
98
99
100
101
102
103
104
105
106
107
108
109
110
111
112
113
114
115
116
117
118
119
120
121
122
123
124
125
126
127
128
129
130
131
132
133
134
135
136
137
138
139
140
141
142
143
144
145
146
147
148
149
150
151
152
153
154
155
156
157
158
159
160
161
162
163
164
165
166
167
168
169
170
171
172
173
174
175
176
177
178
179
180
181
182
183
184
185
186
187
188
189
190
191
192
193
194
195
196
197
198
199
200
201
202
203
204
205
206
207
208
209
210
211
212
213
214
215
216
217
218
219
220
221
222
223
224
225
226
227
228
229
230
231
232
233
234
235
236

