%nproc=8
%mem=1000MB
# rb3lyp/6-311+g** NMR geom=connectivity

Title

0 1
C    -4.0500558   -0.5771862    0.8136712
H    -5.0263804   -1.0082727    1.0024760
C    -3.9381552    0.6617804    0.2400876
H    -4.8252424    1.2338890   -0.0111295
C    -2.6768410    1.2433246    0.0057578
C    -1.4974121    0.5051527    0.2848253
C    -1.6508332   -0.7338728    0.9404026
H    -0.7713646   -1.2730967    1.2633753
C    -2.8898548   -1.2624035    1.1994307
H    -2.9683706   -2.2124563    1.7152676
C    -2.5773185    2.5963696   -0.4192930
H    -3.4870728    3.1412239   -0.6474055
C    -1.3741895    3.2147896   -0.4364030
H    -1.2997315    4.2742019   -0.6578144
C    -0.1719488    2.4994090   -0.1734588
C    -0.2043917    1.1018437    0.0192689
C     1.0513491    3.2042560   -0.0676222
H     1.0427344    4.2819499   -0.1896997
C     2.1942091    2.5487446    0.2579577
H     3.1168527    3.0912848    0.4334727
C     2.2216473    1.1336562    0.2934990
C     1.0486931    0.3945528    0.0302412
C     3.4483363    0.4614633    0.5573939
H     4.3095794    1.0606054    0.8334846
C     3.5427346   -0.8855926    0.4749463
H     4.4731467   -1.3939704    0.7038822
C     2.4490052   -1.6474447   -0.0196319
C     1.2150704   -1.0057258   -0.3013573
C     0.2531113   -1.7434440   -1.0216591
H    -0.6541356   -1.2535051   -1.3462847
C     0.4494193   -3.0628597   -1.3413779
H    -0.3083162   -3.5944309   -1.9054060
C     1.6251726   -3.7207967   -0.9552541
H     1.7670048   -4.7687404   -1.1927019
C     2.6109872   -3.0144177   -0.3183050
H     3.5525612   -3.4902813   -0.0646367
Bq         2.7549722409    -0.7105546978     0.7842561097
Bq         2.5556634220    -0.8436329534     1.2230797333
Bq         2.7948340047    -0.6839390467     0.6964913850
Bq         2.5158016582    -0.8702486045     1.3108444580
Bq         2.8346957685    -0.6573233956     0.6087266603
Bq         2.4759398944    -0.8968642556     1.3986091827
Bq         2.8745575323    -0.6307077445     0.5209619356
Bq         2.6752487133    -0.7637860000     0.9597855591
Bq         2.6243804762    -0.6940086684     1.0717835343
Bq         2.7041040038    -0.6407773662     0.8962540849
Bq         2.5845187124    -0.7206243196     1.1595482590
Bq         2.7439657675    -0.6141617151     0.8084893602
Bq         2.5446569486    -0.7472399707     1.2473129837
Bq         2.7838275313    -0.5875460640     0.7207246354
Bq         2.5047951848    -0.7738556218     1.3350777084
Bq         2.8236892951    -0.5609304129     0.6329599107
Bq         2.4649334210    -0.8004712729     1.4228424331
Bq         2.8635510589    -0.5343147618     0.5451951860
Bq         2.6642422400    -0.6673930173     0.9840188096
Bq         2.6133740028    -0.5976156857     1.0960167847
Bq         2.6930975304    -0.5443843835     0.9204873353
Bq         2.5735122390    -0.6242313368     1.1837815095
Bq         2.7329592942    -0.5177687324     0.8327226106
Bq         2.5336504752    -0.6508469879     1.2715462342
Bq         2.7728210580    -0.4911530813     0.7449578859
Bq         2.4937887114    -0.6774626391     1.3593109589
Bq         2.8126828217    -0.4645374302     0.6571931612
Bq         2.4539269477    -0.7040782902     1.4470756836
Bq         2.8525445855    -0.4379217791     0.5694284365
Bq         2.6532357666    -0.5710000346     1.0082520600
Bq         2.6023675294    -0.5012227030     1.1202500352
Bq         2.6820910570    -0.4479914008     0.9447205858
Bq         2.5625057656    -0.5278383541     1.2080147599
Bq         2.7219528208    -0.4213757497     0.8569558611
Bq         2.5226440019    -0.5544540052     1.2957794846
Bq         2.7618145846    -0.3947600986     0.7691911364
Bq         2.4827822381    -0.5810696563     1.3835442093
Bq         2.8016763484    -0.3681444475     0.6814264116
Bq         2.4429204743    -0.6076853074     1.4713089341
Bq         2.8415381122    -0.3415287964     0.5936616869
Bq         2.6422292932    -0.4746070519     1.0324853105
Bq         2.5913610561    -0.4048297203     1.1444832857
Bq         2.6710845836    -0.3515984181     0.9689538362
Bq         2.5514992923    -0.4314453714     1.2322480104
Bq         2.7109463474    -0.3249827670     0.8811891115
Bq         2.5116375285    -0.4580610225     1.3200127351
Bq         2.7508081112    -0.2983671159     0.7934243868
Bq         2.4717757647    -0.4846766736     1.4077774598
Bq         2.7906698750    -0.2717514648     0.7056596621
Bq         2.4319140009    -0.5112923247     1.4955421845
Bq         2.8305316388    -0.2451358137     0.6178949374
Bq         2.6312228199    -0.3782140692     1.0567185610
Bq         2.5803545827    -0.3084367376     1.1687165361
Bq         2.6600781103    -0.2552054354     0.9931870867
Bq         2.5404928189    -0.3350523887     1.2564812608
Bq         2.6999398741    -0.2285897843     0.9054223620
Bq         2.5006310551    -0.3616680398     1.3442459855
Bq         2.7398016378    -0.2019741332     0.8176576373
Bq         2.4607692913    -0.3882836909     1.4320107103
Bq         2.7796634016    -0.1753584821     0.7298929126
Bq         2.4209075275    -0.4148993420     1.5197754350
Bq         2.8195251654    -0.1487428310     0.6421281878
Bq         2.6202163465    -0.2818210865     1.0809518114
Bq         2.5693481093    -0.2120437549     1.1929497866
Bq         2.6490716369    -0.1588124527     1.0174203372
Bq         2.5294863455    -0.2386594060     1.2807145113
Bq         2.6889334007    -0.1321968016     0.9296556124
Bq         2.4896245817    -0.2652750571     1.3684792360
Bq         2.7287951645    -0.1055811505     0.8418908877
Bq         2.4497628180    -0.2918907082     1.4562439607
Bq         2.7686569283    -0.0789654993     0.7541261630
Bq         2.4099010542    -0.3185063593     1.5440086854
Bq         2.8085186920    -0.0523498482     0.6663614383
Bq         2.6092098731    -0.1854281038     1.1051850619
Bq         2.5583416359    -0.1156507722     1.2171830370
Bq         2.6380651635    -0.0624194700     1.0416535876
Bq         2.5184798722    -0.1422664233     1.3049477617
Bq         2.6779269273    -0.0358038189     0.9538888629
Bq         2.4786181084    -0.1688820744     1.3927124865
Bq         2.7177886911    -0.0091881677     0.8661241382
Bq         2.4387563446    -0.1954977255     1.4804772112
Bq         2.7576504549     0.0174274834     0.7783594135
Bq         2.3988945808    -0.2221133766     1.5682419359
Bq         2.7975122187     0.0440431345     0.6905946888
Bq         2.5982033997    -0.0890351211     1.1294183123
Bq         3.1997141779    -4.9352999078     0.0468739018
Bq         3.2794377054    -4.8820686056    -0.1286555477
Bq         3.1598524141    -4.9619155589     0.1346386265
Bq         3.3192994692    -4.8554529545    -0.2164202724
Bq         3.1199906503    -4.9885312100     0.2224033512
Bq         3.3591612330    -4.8288373034    -0.3041849971
Bq         3.0801288865    -5.0151468611     0.3101680759
Bq         3.3990229968    -4.8022216522    -0.3919497218
Bq         3.0402671227    -5.0417625122     0.3979328006
Bq         3.4388847606    -4.7756060011    -0.4797144465
Bq         3.2395759417    -4.9086842567    -0.0408908229
Bq         3.1887077045    -4.8389069251     0.0711071522
Bq         3.2684312321    -4.7856756229    -0.1044222972
Bq         3.1488459407    -4.8655225762     0.1588718769
Bq         3.3082929959    -4.7590599717    -0.1921870219
Bq         3.1089841769    -4.8921382273     0.2466366016
Bq         3.3481547596    -4.7324443206    -0.2799517466
Bq         3.0691224131    -4.9187538784     0.3344013264
Bq         3.3880165234    -4.7058286695    -0.3677164713
Bq         3.0292606493    -4.9453695295     0.4221660511
Bq         3.4278782872    -4.6792130184    -0.4554811961
Bq         3.2285694683    -4.8122912740    -0.0166575725
Bq         3.1777012311    -4.7425139424     0.0953404027
Bq         3.2574247587    -4.6892826401    -0.0801890467
Bq         3.1378394673    -4.7691295935     0.1831051274
Bq         3.2972865225    -4.6626669890    -0.1679537715
Bq         3.0979777035    -4.7957452446     0.2708698521
Bq         3.3371482863    -4.6360513379    -0.2557184962
Bq         3.0581159398    -4.8223608957     0.3586345768
Bq         3.3770100501    -4.6094356868    -0.3434832209
Bq         3.0182541760    -4.8489765468     0.4463993015
Bq         3.4168718138    -4.5828200357    -0.4312479456
Bq         3.2175629949    -4.7158982912     0.0075756780
Bq         3.1666947578    -4.6461209596     0.1195736531
Bq         3.2464182853    -4.5928896574    -0.0559557963
Bq         3.1268329940    -4.6727366108     0.2073383779
Bq         3.2862800491    -4.5662740063    -0.1437205210
Bq         3.0869712302    -4.6993522619     0.2951031026
Bq         3.3261418129    -4.5396583552    -0.2314852457
Bq         3.0471094664    -4.7259679130     0.3828678273
Bq         3.3660035767    -4.5130427041    -0.3192499704
Bq         3.0072477026    -4.7525835641     0.4706325520
Bq         3.4058653405    -4.4864270530    -0.4070146951
Bq         3.2065565215    -4.6195053085     0.0318089284
Bq         3.1556882844    -4.5497279769     0.1438069036
Bq         3.2354118120    -4.4964966747    -0.0317225458
Bq         3.1158265206    -4.5763436280     0.2315716283
Bq         3.2752735757    -4.4698810236    -0.1194872705
Bq         3.0759647568    -4.6029592791     0.3193363530
Bq         3.3151353395    -4.4432653725    -0.2072519953
Bq         3.0361029930    -4.6295749303     0.4071010777
Bq         3.3549971033    -4.4166497214    -0.2950167200
Bq         2.9962412292    -4.6561905814     0.4948658024
Bq         3.3948588671    -4.3900340703    -0.3827814447
Bq         3.1955500482    -4.5231123258     0.0560421789
Bq         3.1446818110    -4.4533349942     0.1680401541
Bq         3.2244053386    -4.4001036920    -0.0074892954
Bq         3.1048200472    -4.4799506453     0.2558048788
Bq         3.2642671024    -4.3734880409    -0.0952540201
Bq         3.0649582834    -4.5065662964     0.3435696035
Bq         3.3041288662    -4.3468723898    -0.1830187448
Bq         3.0250965196    -4.5331819475     0.4313343282
Bq         3.3439906299    -4.3202567387    -0.2707834695
Bq         2.9852347559    -4.5597975986     0.5190990529
Bq         3.3838523937    -4.2936410876    -0.3585481942
Bq         3.1845435748    -4.4267193431     0.0802754293
Bq         3.1336753376    -4.3569420115     0.1922734045
Bq         3.2133988652    -4.3037107093     0.0167439551
Bq         3.0938135738    -4.3835576626     0.2800381292
Bq         3.2532606290    -4.2770950582    -0.0710207696
Bq         3.0539518101    -4.4101733137     0.3678028539
Bq         3.2931223928    -4.2504794071    -0.1587854943
Bq         3.0140900463    -4.4367889648     0.4555675787
Bq         3.3329841566    -4.2238637560    -0.2465502191
Bq         2.9742282825    -4.4634046159     0.5433323034
Bq         3.3728459204    -4.1972481049    -0.3343149438
Bq         3.1735371014    -4.3303263604     0.1045086798
Bq         3.1226688643    -4.2605490288     0.2165066550
Bq         3.2023923918    -4.2073177266     0.0409772055
Bq         3.0828071005    -4.2871646799     0.3042713797
Bq         3.2422541556    -4.1807020755    -0.0467875192
Bq         3.0429453367    -4.3137803310     0.3920361044
Bq         3.2821159194    -4.1540864244    -0.1345522439
Bq         3.0030835729    -4.3403959821     0.4798008291
Bq         3.3219776832    -4.1274707733    -0.2223169686
Bq         2.9632218091    -4.3670116332     0.5675655538
Bq         3.3618394470    -4.1008551222    -0.3100816933
Bq         3.1625306281    -4.2339333777     0.1287419303
Bq         3.1116623909    -4.1641560461     0.2407399054
Bq         3.1913859185    -4.1109247439     0.0652104560
Bq         3.0718006271    -4.1907716972     0.3285046301
Bq         3.2312476823    -4.0843090928    -0.0225542687
Bq         3.0319388633    -4.2173873483     0.4162693549
Bq         3.2711094460    -4.0576934417    -0.1103189934
Bq         2.9920770995    -4.2440029994     0.5040340796
Bq         3.3109712098    -4.0310777905    -0.1980837181
Bq         2.9522153357    -4.2706186505     0.5917988043
Bq         3.3508329736    -4.0044621394    -0.2858484428
Bq         3.1515241547    -4.1375403950     0.1529751807
Bq         3.1006559175    -4.0677630634     0.2649731559
Bq         3.1803794451    -4.0145317612     0.0894437065
Bq         3.0607941537    -4.0943787145     0.3527378806
Bq         3.2202412089    -3.9879161100     0.0016789817
Bq         3.0209323899    -4.1209943656     0.4405026053
Bq         3.2601029727    -3.9613004589    -0.0860857430
Bq         2.9810706262    -4.1476100167     0.5282673300
Bq         3.2999647365    -3.9346848078    -0.1738504677
Bq         2.9412088624    -4.1742256678     0.6160320547
Bq         3.3398265002    -3.9080691567    -0.2616151924
Bq         3.1405176813    -4.0411474123     0.1772084312
Bq         3.0896494441    -3.9713700807     0.2892064063
Bq         3.1693729717    -3.9181387784     0.1136769569
Bq         3.0497876804    -3.9979857318     0.3769711311
Bq         3.2092347355    -3.8915231273     0.0259122322
Bq         3.0099259166    -4.0246013829     0.4647358558

1
2
3
4
5
6
7
8
9
10
11
12
13
14
15
16
17
18
19
20
21
22
23
24
25
26
27
28
29
30
31
32
33
34
35
36
37
38
39
40
41
42
43
44
45
46
47
48
49
50
51
52
53
54
55
56
57
58
59
60
61
62
63
64
65
66
67
68
69
70
71
72
73
74
75
76
77
78
79
80
81
82
83
84
85
86
87
88
89
90
91
92
93
94
95
96
97
98
99
100
101
102
103
104
105
106
107
108
109
110
111
112
113
114
115
116
117
118
119
120
121
122
123
124
125
126
127
128
129
130
131
132
133
134
135
136
137
138
139
140
141
142
143
144
145
146
147
148
149
150
151
152
153
154
155
156
157
158
159
160
161
162
163
164
165
166
167
168
169
170
171
172
173
174
175
176
177
178
179
180
181
182
183
184
185
186
187
188
189
190
191
192
193
194
195
196
197
198
199
200
201
202
203
204
205
206
207
208
209
210
211
212
213
214
215
216
217
218
219
220
221
222
223
224
225
226
227
228
229
230
231
232
233
234
235
236

