%nproc=8
%mem=1000MB
# rb3lyp/6-311+g** NMR geom=connectivity

Title

0 1
C    -4.0500558   -0.5771862    0.8136712
H    -5.0263804   -1.0082727    1.0024760
C    -3.9381552    0.6617804    0.2400876
H    -4.8252424    1.2338890   -0.0111295
C    -2.6768410    1.2433246    0.0057578
C    -1.4974121    0.5051527    0.2848253
C    -1.6508332   -0.7338728    0.9404026
H    -0.7713646   -1.2730967    1.2633753
C    -2.8898548   -1.2624035    1.1994307
H    -2.9683706   -2.2124563    1.7152676
C    -2.5773185    2.5963696   -0.4192930
H    -3.4870728    3.1412239   -0.6474055
C    -1.3741895    3.2147896   -0.4364030
H    -1.2997315    4.2742019   -0.6578144
C    -0.1719488    2.4994090   -0.1734588
C    -0.2043917    1.1018437    0.0192689
C     1.0513491    3.2042560   -0.0676222
H     1.0427344    4.2819499   -0.1896997
C     2.1942091    2.5487446    0.2579577
H     3.1168527    3.0912848    0.4334727
C     2.2216473    1.1336562    0.2934990
C     1.0486931    0.3945528    0.0302412
C     3.4483363    0.4614633    0.5573939
H     4.3095794    1.0606054    0.8334846
C     3.5427346   -0.8855926    0.4749463
H     4.4731467   -1.3939704    0.7038822
C     2.4490052   -1.6474447   -0.0196319
C     1.2150704   -1.0057258   -0.3013573
C     0.2531113   -1.7434440   -1.0216591
H    -0.6541356   -1.2535051   -1.3462847
C     0.4494193   -3.0628597   -1.3413779
H    -0.3083162   -3.5944309   -1.9054060
C     1.6251726   -3.7207967   -0.9552541
H     1.7670048   -4.7687404   -1.1927019
C     2.6109872   -3.0144177   -0.3183050
H     3.5525612   -3.4902813   -0.0646367
Bq        -0.1906545081    -0.2918907082     0.2569957195
Bq         0.1282396022    -0.0789654993    -0.4451220782
Bq        -0.2305162719    -0.3185063593     0.3447604442
Bq         0.1681013660    -0.0523498482    -0.5328868029
Bq        -0.0312074530    -0.1854281038    -0.0940631794
Bq        -0.0820756901    -0.1156507722     0.0179347958
Bq        -0.0023521626    -0.0624194700    -0.1575946536
Bq        -0.1219374539    -0.1422664233     0.1056995205
Bq         0.0375096012    -0.0358038189    -0.2453593783
Bq        -0.1617992177    -0.1688820744     0.1934642452
Bq         0.0773713650    -0.0091881677    -0.3331241030
Bq        -0.2016609815    -0.1954977255     0.2812289700
Bq         0.1172331288     0.0174274834    -0.4208888277
Bq        -0.2415227453    -0.2221133766     0.3689936947
Bq         0.1570948926     0.0440431345    -0.5086535525
Bq        -0.0422139264    -0.0890351211    -0.0698299289
Bq         0.5592968518    -4.9352999078    -1.1523743395
Bq         0.6390203794    -4.8820686056    -1.3279037889
Bq         0.5194350880    -4.9619155589    -1.0646096147
Bq         0.6788821431    -4.8554529545    -1.4156685136
Bq         0.4795733242    -4.9885312100    -0.9768448900
Bq         0.7187439069    -4.8288373034    -1.5034332383
Bq         0.4397115604    -5.0151468611    -0.8890801653
Bq         0.7586056707    -4.8022216522    -1.5911979630
Bq         0.3998497966    -5.0417625122    -0.8013154406
Bq         0.7984674345    -4.7756060011    -1.6789626877
Bq         0.5991586156    -4.9086842567    -1.2401390642
Bq         0.5482903784    -4.8389069251    -1.1281410890
Bq         0.6280139060    -4.7856756229    -1.3036705384
Bq         0.5084286146    -4.8655225762    -1.0403763643
Bq         0.6678756698    -4.7590599717    -1.3914352631
Bq         0.4685668508    -4.8921382273    -0.9526116396
Bq         0.7077374336    -4.7324443206    -1.4791999879
Bq         0.4287050870    -4.9187538784    -0.8648469149
Bq         0.7475991973    -4.7058286695    -1.5669647126
Bq         0.3888433233    -4.9453695295    -0.7770821901
Bq         0.7874609611    -4.6792130184    -1.6547294373
Bq         0.5881521422    -4.8122912740    -1.2159058137
Bq         0.5372839050    -4.7425139424    -1.1039078385
Bq         0.6170074326    -4.6892826401    -1.2794372880
Bq         0.4974221412    -4.7691295935    -1.0161431138
Bq         0.6568691964    -4.6626669890    -1.3672020127
Bq         0.4575603775    -4.7957452446    -0.9283783891
Bq         0.6967309602    -4.6360513379    -1.4549667374
Bq         0.4176986137    -4.8223608957    -0.8406136644
Bq         0.7365927240    -4.6094356868    -1.5427314621
Bq         0.3778368499    -4.8489765468    -0.7528489397
Bq         0.7764544878    -4.5828200357    -1.6304961868
Bq         0.5771456688    -4.7158982912    -1.1916725633
Bq         0.5262774317    -4.6461209596    -1.0796745881
Bq         0.6060009592    -4.5928896574    -1.2552040375
Bq         0.4864156679    -4.6727366108    -0.9919098634
Bq         0.6458627230    -4.5662740063    -1.3429687622
Bq         0.4465539041    -4.6993522619    -0.9041451387
Bq         0.6857244868    -4.5396583552    -1.4307334869
Bq         0.4066921403    -4.7259679130    -0.8163804139
Bq         0.7255862506    -4.5130427041    -1.5184982116
Bq         0.3668303765    -4.7525835641    -0.7286156892
Bq         0.7654480144    -4.4864270530    -1.6062629364
Bq         0.5661391954    -4.6195053085    -1.1674393128
Bq         0.5152709583    -4.5497279769    -1.0554413376
Bq         0.5949944859    -4.4964966747    -1.2309707871
Bq         0.4754091945    -4.5763436280    -0.9676766129
Bq         0.6348562496    -4.4698810236    -1.3187355118
Bq         0.4355474307    -4.6029592791    -0.8799118882
Bq         0.6747180134    -4.4432653725    -1.4065002365
Bq         0.3956856669    -4.6295749303    -0.7921471635
Bq         0.7145797772    -4.4166497214    -1.4942649612
Bq         0.3558239031    -4.6561905814    -0.7043824388
Bq         0.7544415410    -4.3900340703    -1.5820296859
Bq         0.5551327221    -4.5231123258    -1.1432060623
Bq         0.5042644849    -4.4533349942    -1.0312080872
Bq         0.5839880125    -4.4001036920    -1.2067375366
Bq         0.4644027211    -4.4799506453    -0.9434433625
Bq         0.6238497763    -4.3734880409    -1.2945022613
Bq         0.4245409573    -4.5065662964    -0.8556786377
Bq         0.6637115401    -4.3468723898    -1.3822669860
Bq         0.3846791936    -4.5331819475    -0.7679139130
Bq         0.7035733039    -4.3202567387    -1.4700317107
Bq         0.3448174298    -4.5597975986    -0.6801491883
Bq         0.7434350676    -4.2936410876    -1.5577964354
Bq         0.5441262487    -4.4267193431    -1.1189728119
Bq         0.4932580115    -4.3569420115    -1.0069748367
Bq         0.5729815391    -4.3037107093    -1.1825042861
Bq         0.4533962478    -4.3835576626    -0.9192101120
Bq         0.6128433029    -4.2770950582    -1.2702690108
Bq         0.4135344840    -4.4101733137    -0.8314453873
Bq         0.6527050667    -4.2504794071    -1.3580337356
Bq         0.3736727202    -4.4367889648    -0.7436806626
Bq         0.6925668305    -4.2238637560    -1.4457984603
Bq         0.3338109564    -4.4634046159    -0.6559159379
Bq         0.7324285943    -4.1972481049    -1.5335631850
Bq         0.5331197753    -4.3303263604    -1.0947395614
Bq         0.4822515382    -4.2605490288    -0.9827415863
Bq         0.5619750657    -4.2073177266    -1.1582710357
Bq         0.4423897744    -4.2871646799    -0.8949768615
Bq         0.6018368295    -4.1807020755    -1.2460357604
Bq         0.4025280106    -4.3137803310    -0.8072121368
Bq         0.6416985933    -4.1540864244    -1.3338004851
Bq         0.3626662468    -4.3403959821    -0.7194474121
Bq         0.6815603571    -4.1274707733    -1.4215652098
Bq         0.3228044830    -4.3670116332    -0.6316826874
Bq         0.7214221209    -4.1008551222    -1.5093299345
Bq         0.5221133020    -4.2339333777    -1.0705063110
Bq         0.4712450648    -4.1641560461    -0.9585083358
Bq         0.5509685924    -4.1109247439    -1.1340377852
Bq         0.4313833010    -4.1907716972    -0.8707436111
Bq         0.5908303562    -4.0843090928    -1.2218025099
Bq         0.3915215372    -4.2173873483    -0.7829788864
Bq         0.6306921199    -4.0576934417    -1.3095672346
Bq         0.3516597734    -4.2440029994    -0.6952141617
Bq         0.6705538837    -4.0310777905    -1.3973319594
Bq         0.3117980096    -4.2706186505    -0.6074494369
Bq         0.7104156475    -4.0044621394    -1.4850966841
Bq         0.5111068286    -4.1375403950    -1.0462730605
Bq         0.4602385914    -4.0677630634    -0.9342750853
Bq         0.5399621190    -4.0145317612    -1.1098045348
Bq         0.4203768276    -4.0943787145    -0.8465103606
Bq         0.5798238828    -3.9879161100    -1.1975692595
Bq         0.3805150639    -4.1209943656    -0.7587456359
Bq         0.6196856466    -3.9613004589    -1.2853339842
Bq         0.3406533001    -4.1476100167    -0.6709809112
Bq         0.6595474104    -3.9346848078    -1.3730987089
Bq         0.3007915363    -4.1742256678    -0.5832161865
Bq         0.6994091742    -3.9080691567    -1.4608634336
Bq         0.5001003552    -4.0411474123    -1.0220398100
Bq         0.4492321181    -3.9713700807    -0.9100418349
Bq         0.5289556456    -3.9181387784    -1.0855712843
Bq         0.4093703543    -3.9979857318    -0.8222771102
Bq         0.5688174094    -3.8915231273    -1.1733360090
Bq         0.3695085905    -4.0246013829    -0.7345123855
Bq         0.6086791732    -3.8649074762    -1.2611007337
Bq         0.3296468267    -4.0512170340    -0.6467476607
Bq         0.6485409370    -3.8382918251    -1.3488654584
Bq         0.2897850629    -4.0778326851    -0.5589829360
Bq         0.6884027008    -3.8116761740    -1.4366301832
Bq         0.4890938818    -3.9447544296    -0.9978065596
Bq         0.4382256447    -3.8749770979    -0.8858085844
Bq         0.5179491723    -3.8217457957    -1.0613380338
Bq         0.3983638809    -3.9015927491    -0.7980438597
Bq         0.5578109360    -3.7951301446    -1.1491027586
Bq         0.3585021171    -3.9282084002    -0.7102791350
Bq         0.5976726998    -3.7685144935    -1.2368674833
Bq         0.3186403533    -3.9548240513    -0.6225144103
Bq         0.6375344636    -3.7418988424    -1.3246322080
Bq         0.2787785895    -3.9814397024    -0.5347496856
Bq         0.6773962274    -3.7152831913    -1.4123969327
Bq         0.4780874085    -3.8483614468    -0.9735733091
Bq         0.4272191713    -3.7785841152    -0.8615753340
Bq         0.5069426989    -3.7253528130    -1.0371047834
Bq         0.3873574075    -3.8051997663    -0.7738106092
Bq         0.5468044627    -3.6987371619    -1.1248695081
Bq         0.3474956437    -3.8318154174    -0.6860458845
Bq         0.5866662265    -3.6721215108    -1.2126342328
Bq         0.3076338799    -3.8584310686    -0.5982811598
Bq         0.6265279902    -3.6455058597    -1.3003989575
Bq         0.2677721162    -3.8850467197    -0.5105164351
Bq         0.6663897540    -3.6188902086    -1.3881636822
Bq         0.4670809351    -3.7519684641    -0.9493400587
Bq         0.4162126979    -3.6821911325    -0.8373420835
Bq         0.4959362255    -3.6289598303    -1.0128715329
Bq         0.3763509342    -3.7088067836    -0.7495773588
Bq         0.5357979893    -3.6023441792    -1.1006362576
Bq         0.3364891704    -3.7354224347    -0.6618126341
Bq         0.5756597531    -3.5757285281    -1.1884009824
Bq         0.2966274066    -3.7620380858    -0.5740479094
Bq         0.6155215169    -3.5491128770    -1.2761657071
Bq         0.2567656428    -3.7886537369    -0.4862831847
Bq         0.6553832807    -3.5224972259    -1.3639304318
Bq         0.4560744617    -3.6555754814    -0.9251068082
Bq         0.4052062246    -3.5857981498    -0.8131088330
Bq         0.4849297521    -3.5325668476    -0.9886382825
Bq         0.3653444608    -3.6124138009    -0.7253441083
Bq         0.5247915159    -3.5059511965    -1.0764030072
Bq         0.3254826970    -3.6390294520    -0.6375793836
Bq         0.5646532797    -3.4793355454    -1.1641677319
Bq         0.2856209332    -3.6656451031    -0.5498146589
Bq         0.6045150435    -3.4527198943    -1.2519324566
Bq         0.2457591694    -3.6922607542    -0.4620499342
Bq         0.6443768073    -3.4261042432    -1.3396971813
Bq         0.4450679884    -3.5591824987    -0.9008735578
Bq         0.3941997512    -3.4894051671    -0.7888755826
Bq         0.4739232788    -3.4361738649    -0.9644050320
Bq         0.3543379874    -3.5160208182    -0.7011108579
Bq         0.5137850426    -3.4095582138    -1.0521697567
Bq         0.3144762236    -3.5426364693    -0.6133461332
Bq         0.5536468063    -3.3829425627    -1.1399344814
Bq         0.2746144598    -3.5692521204    -0.5255814084
Bq         0.5935085701    -3.3563269116    -1.2276992062
Bq         0.2347526960    -3.5958677715    -0.4378166837
Bq         0.6333703339    -3.3297112605    -1.3154639309
Bq         0.4340615150    -3.4627895160    -0.8766403073
Bq         0.3831932778    -3.3930121844    -0.7646423321
Bq         0.4629168054    -3.3397808822    -0.9401717816
Bq         0.3433315140    -3.4196278355    -0.6768776074
Bq         0.5027785692    -3.3131652311    -1.0279365063
Bq         0.3034697502    -3.4462434866    -0.5891128827
Bq         0.5426403330    -3.2865495800    -1.1157012310
Bq         0.2636079865    -3.4728591377    -0.5013481580
Bq         0.5825020968    -3.2599339288    -1.2034659557

1
2
3
4
5
6
7
8
9
10
11
12
13
14
15
16
17
18
19
20
21
22
23
24
25
26
27
28
29
30
31
32
33
34
35
36
37
38
39
40
41
42
43
44
45
46
47
48
49
50
51
52
53
54
55
56
57
58
59
60
61
62
63
64
65
66
67
68
69
70
71
72
73
74
75
76
77
78
79
80
81
82
83
84
85
86
87
88
89
90
91
92
93
94
95
96
97
98
99
100
101
102
103
104
105
106
107
108
109
110
111
112
113
114
115
116
117
118
119
120
121
122
123
124
125
126
127
128
129
130
131
132
133
134
135
136
137
138
139
140
141
142
143
144
145
146
147
148
149
150
151
152
153
154
155
156
157
158
159
160
161
162
163
164
165
166
167
168
169
170
171
172
173
174
175
176
177
178
179
180
181
182
183
184
185
186
187
188
189
190
191
192
193
194
195
196
197
198
199
200
201
202
203
204
205
206
207
208
209
210
211
212
213
214
215
216
217
218
219
220
221
222
223
224
225
226
227
228
229
230
231
232
233
234
235
236

