%nproc=8
%mem=1000MB
# rb3lyp/6-311+g** NMR geom=connectivity

Title

0 1
C    -4.0500558   -0.5771862    0.8136712
H    -5.0263804   -1.0082727    1.0024760
C    -3.9381552    0.6617804    0.2400876
H    -4.8252424    1.2338890   -0.0111295
C    -2.6768410    1.2433246    0.0057578
C    -1.4974121    0.5051527    0.2848253
C    -1.6508332   -0.7338728    0.9404026
H    -0.7713646   -1.2730967    1.2633753
C    -2.8898548   -1.2624035    1.1994307
H    -2.9683706   -2.2124563    1.7152676
C    -2.5773185    2.5963696   -0.4192930
H    -3.4870728    3.1412239   -0.6474055
C    -1.3741895    3.2147896   -0.4364030
H    -1.2997315    4.2742019   -0.6578144
C    -0.1719488    2.4994090   -0.1734588
C    -0.2043917    1.1018437    0.0192689
C     1.0513491    3.2042560   -0.0676222
H     1.0427344    4.2819499   -0.1896997
C     2.1942091    2.5487446    0.2579577
H     3.1168527    3.0912848    0.4334727
C     2.2216473    1.1336562    0.2934990
C     1.0486931    0.3945528    0.0302412
C     3.4483363    0.4614633    0.5573939
H     4.3095794    1.0606054    0.8334846
C     3.5427346   -0.8855926    0.4749463
H     4.4731467   -1.3939704    0.7038822
C     2.4490052   -1.6474447   -0.0196319
C     1.2150704   -1.0057258   -0.3013573
C     0.2531113   -1.7434440   -1.0216591
H    -0.6541356   -1.2535051   -1.3462847
C     0.4494193   -3.0628597   -1.3413779
H    -0.3083162   -3.5944309   -1.9054060
C     1.6251726   -3.7207967   -0.9552541
H     1.7670048   -4.7687404   -1.1927019
C     2.6109872   -3.0144177   -0.3183050
H     3.5525612   -3.4902813   -0.0646367
Bq         2.1775921742     3.6607044443     1.1491331926
Bq         2.3223517046     3.6115695935     0.1608870468
Bq         2.2499719394     3.6361370189     0.6550101197
Bq         2.2362081203     3.7409297193     0.7489731295
Bq         2.2651600264     3.7311027492     0.5513239003
Bq         2.2217321672     3.7458432044     0.8477977441
Bq         2.2796359794     3.7261892641     0.4524992857
Bq         2.2072562142     3.7507566895     0.9466223587
Bq         2.2941119325     3.7212757790     0.3536746712
Bq         2.1927802612     3.7556701746     1.0454469732
Bq         2.3085878855     3.7163622939     0.2548500566
Bq         2.1783043081     3.7605836597     1.1442715878
Bq         2.3230638386     3.7114488088     0.1560254420
Bq         2.2506840733     3.7360162342     0.6501485149
Bq         2.2369202542     3.8408089347     0.7441115247
Bq         2.2658721603     3.8309819645     0.5464622956
Bq         2.2224443012     3.8457224198     0.8429361393
Bq         2.2803481134     3.8260684795     0.4476376810
Bq         2.2079683481     3.8506359049     0.9417607539
Bq         2.2948240664     3.8211549944     0.3488130664
Bq         2.1934923951     3.8555493900     1.0405853685
Bq         2.3093000195     3.8162415093     0.2499884518
Bq         2.1790164421     3.8604628750     1.1394099831
Bq         2.3237759725     3.8113280242     0.1511638372
Bq         2.2513962073     3.8358954496     0.6452869101
Bq         2.2376323882     3.9406881501     0.7392499200
Bq         2.2665842943     3.9308611799     0.5416006908
Bq         2.2231564351     3.9456016352     0.8380745345
Bq         2.2810602473     3.9259476948     0.4427760762
Bq         2.2086804821     3.9505151202     0.9368991491
Bq         2.2955362004     3.9210342098     0.3439514616
Bq         2.1942045290     3.9554286053     1.0357237637
Bq         2.3100121534     3.9161207247     0.2451268470
Bq         2.1797285760     3.9603420904     1.1345483783
Bq         2.3244881064     3.9112072396     0.1463022325
Bq         2.2521083412     3.9357746650     0.6404253054
Bq         2.2383445221     4.0405673655     0.7343883152
Bq         2.2672964282     4.0307403953     0.5367390860
Bq         2.2238685691     4.0454808505     0.8332129298
Bq         2.2817723812     4.0258269102     0.4379144714
Bq         2.2093926160     4.0503943356     0.9320375444
Bq         2.2962483343     4.0209134251     0.3390898569
Bq         2.1949166630     4.0553078207     1.0308621589
Bq         2.3107242873     4.0159999400     0.2402652423
Bq         2.1804407099     4.0602213058     1.1296867735
Bq         2.3252002404     4.0110864550     0.1414406277
Bq         2.2528204752     4.0356538804     0.6355637006
Bq         2.2390566561     4.1404465808     0.7295267104
Bq         2.2680085621     4.1306196107     0.5318774813
Bq         2.2245807030     4.1453600659     0.8283513250
Bq         2.2824845152     4.1257061256     0.4330528667
Bq         2.2101047500     4.1502735510     0.9271759396
Bq         2.2969604682     4.1207926405     0.3342282521
Bq         2.1956287969     4.1551870361     1.0260005542
Bq         2.3114364213     4.1158791554     0.2354036375
Bq         2.1811528439     4.1601005212     1.1248251688
Bq         2.3259123743     4.1109656703     0.1365790229
Bq         2.2535326091     4.1355330958     0.6307020958
Bq         2.2397687900     4.2403257962     0.7246651057
Bq         2.2687206961     4.2304988260     0.5270158765
Bq         2.2252928370     4.2452392813     0.8234897202
Bq         2.2831966491     4.2255853410     0.4281912619
Bq         2.2108168839     4.2501527664     0.9223143348
Bq         2.2976726022     4.2206718559     0.3293666473
Bq         2.1963409309     4.2550662515     1.0211389494
Bq         2.3121485552     4.2157583708     0.2305420327
Bq         2.1818649778     4.2599797365     1.1199635640
Bq         2.3266245083     4.2108448857     0.1317174182
Bq         2.2542447430     4.2354123111     0.6258404911
Bq         2.2404809239     4.3402050116     0.7198035009
Bq         2.2694328300     4.3303780414     0.5221542717
Bq         2.2260049709     4.3451184967     0.8186281155
Bq         2.2839087831     4.3254645563     0.4233296571
Bq         2.2115290179     4.3500319818     0.9174527301
Bq         2.2983847361     4.3205510713     0.3245050426
Bq         2.1970530648     4.3549454668     1.0162773446
Bq         2.3128606892     4.3156375862     0.2256804280
Bq         2.1825771118     4.3598589519     1.1151019592
Bq         2.3273366422     4.3107241011     0.1268558134
Bq         2.2549568770     4.3352915265     0.6209788863
Bq         2.3038183507    -0.6537557573     0.9773771981
Bq         2.3327702568    -0.6635827274     0.7797279690
Bq         2.2893423977    -0.6488422722     1.0762018127
Bq         2.3472462099    -0.6684962125     0.6809033544
Bq         2.2748664446    -0.6439287871     1.1750264273
Bq         2.3617221629    -0.6734096976     0.5820787398
Bq         2.2603904916    -0.6390153020     1.2738510419
Bq         2.3761981159    -0.6783231827     0.4832541252
Bq         2.2459145386    -0.6341018169     1.3726756565
Bq         2.3906740690    -0.6832366678     0.3844295106
Bq         2.3182943038    -0.6586692423     0.8785525835
Bq         2.3045304847    -0.5538765419     0.9725155934
Bq         2.3334823908    -0.5637035121     0.7748663642
Bq         2.2900545316    -0.5489630568     1.0713402080
Bq         2.3479583438    -0.5686169971     0.6760417496
Bq         2.2755785786    -0.5440495717     1.1701648225
Bq         2.3624342968    -0.5735304822     0.5772171350
Bq         2.2611026255    -0.5391360866     1.2689894371
Bq         2.3769102499    -0.5784439673     0.4783925204
Bq         2.2466266725    -0.5342226016     1.3678140517
Bq         2.3913862029    -0.5833574524     0.3795679059
Bq         2.3190064377    -0.5587900270     0.8736909788
Bq         2.3052426186    -0.4539973265     0.9676539886
Bq         2.3341945247    -0.4638242967     0.7700047594
Bq         2.2907666656    -0.4490838414     1.0664786032
Bq         2.3486704777    -0.4687377818     0.6711801448
Bq         2.2762907125    -0.4441703563     1.1653032178
Bq         2.3631464308    -0.4736512668     0.5723555303
Bq         2.2618147595    -0.4392568713     1.2641278324
Bq         2.3776223838    -0.4785647519     0.4735309157
Bq         2.2473388064    -0.4343433862     1.3629524469
Bq         2.3920983369    -0.4834782370     0.3747063011
Bq         2.3197185717    -0.4589108116     0.8688293740
Bq         2.3059547526    -0.3541181111     0.9627923838
Bq         2.3349066586    -0.3639450813     0.7651431547
Bq         2.2914787995    -0.3492046261     1.0616169984
Bq         2.3493826117    -0.3688585664     0.6663185401
Bq         2.2770028465    -0.3442911410     1.1604416130
Bq         2.3638585647    -0.3737720515     0.5674939255
Bq         2.2625268934    -0.3393776559     1.2592662276
Bq         2.3783345178    -0.3786855365     0.4686693109
Bq         2.2480509404    -0.3344641708     1.3580908422
Bq         2.3928104708    -0.3835990216     0.3698446963
Bq         2.3204307056    -0.3590315962     0.8639677692
Bq         2.3066668865    -0.2542388958     0.9579307791
Bq         2.3356187926    -0.2640658659     0.7602815499
Bq         2.2921909334    -0.2493254107     1.0567553937
Bq         2.3500947456    -0.2689793510     0.6614569353
Bq         2.2777149804    -0.2444119256     1.1555800082
Bq         2.3645706987    -0.2738928361     0.5626323207
Bq         2.2632390274    -0.2394984405     1.2544046228
Bq         2.3790466517    -0.2788063212     0.4638077061
Bq         2.2487630743    -0.2345849554     1.3532292374
Bq         2.3935226048    -0.2837198063     0.3649830916
Bq         2.3211428395    -0.2591523808     0.8591061645
Bq         2.3073790204    -0.1543596804     0.9530691743
Bq         2.3363309265    -0.1641866505     0.7554199451
Bq         2.2929030674    -0.1494461953     1.0518937889
Bq         2.3508068796    -0.1691001356     0.6565953305
Bq         2.2784271143    -0.1445327102     1.1507184035
Bq         2.3652828326    -0.1740136207     0.5577707160
Bq         2.2639511613    -0.1396192251     1.2495430181
Bq         2.3797587857    -0.1789271058     0.4589461014
Bq         2.2494752083    -0.1347057400     1.3483676326
Bq         2.3942347387    -0.1838405909     0.3601214868
Bq         2.3218549735    -0.1592731655     0.8542445597
Bq         2.3080911544    -0.0544804650     0.9482075695
Bq         2.3370430605    -0.0643074352     0.7505583404
Bq         2.2936152013    -0.0495669799     1.0470321841
Bq         2.3515190135    -0.0692209203     0.6517337258
Bq         2.2791392483    -0.0446534948     1.1458567987
Bq         2.3659949666    -0.0741344053     0.5529091112
Bq         2.2646632952    -0.0397400098     1.2446814133
Bq         2.3804709196    -0.0790478904     0.4540844966
Bq         2.2501873422    -0.0348265247     1.3435060279
Bq         2.3949468726    -0.0839613755     0.3552598820
Bq         2.3225671074    -0.0593939501     0.8493829549
Bq         2.3088032883     0.0453987504     0.9433459648
Bq         2.3377551944     0.0355717802     0.7456967356
Bq         2.2943273353     0.0503122355     1.0421705794
Bq         2.3522311475     0.0306582951     0.6468721210
Bq         2.2798513822     0.0552257205     1.1409951939
Bq         2.3667071005     0.0257448100     0.5480475064
Bq         2.2653754292     0.0601392056     1.2398198085
Bq         2.3811830535     0.0208313250     0.4492228918
Bq         2.2508994761     0.0650526907     1.3386444231
Bq         2.3956590066     0.0159178399     0.3503982773
Bq         2.3232792414     0.0404852653     0.8445213502
Bq         2.3095154223     0.1452779658     0.9384843600
Bq         2.3384673283     0.1354509956     0.7408351308
Bq         2.2950394692     0.1501914508     1.0373089746
Bq         2.3529432814     0.1305375105     0.6420105162
Bq         2.2805635162     0.1551049359     1.1361335892
Bq         2.3674192344     0.1256240254     0.5431859017
Bq         2.2660875631     0.1600184210     1.2349582038
Bq         2.3818951875     0.1207105403     0.4443612871
Bq         2.2516116101     0.1649319061     1.3337828183
Bq         2.3963711405     0.1157970553     0.3455366725
Bq         2.3239913753     0.1403644807     0.8396597454
Bq         2.3102275562     0.2451571811     0.9336227552
Bq         2.3391794623     0.2353302110     0.7359735261
Bq         2.2957516032     0.2500706662     1.0324473698
Bq         2.3536554153     0.2304167259     0.6371489115
Bq         2.2812756501     0.2549841513     1.1312719844
Bq         2.3681313684     0.2255032408     0.5383242969
Bq         2.2667996971     0.2598976364     1.2300965990
Bq         2.3826073214     0.2205897557     0.4394996823
Bq         2.2523237440     0.2648111215     1.3289212136
Bq         2.3970832745     0.2156762706     0.3406750677
Bq         2.3247035092     0.2402436960     0.8347981406
Bq         2.3109396901     0.3450363965     0.9287611505
Bq         2.3398915962     0.3352094263     0.7311119213
Bq         2.2964637371     0.3499498816     1.0275857651
Bq         2.3543675493     0.3302959413     0.6322873067
Bq         2.2819877841     0.3548633667     1.1264103796
Bq         2.3688435023     0.3253824562     0.5334626921
Bq         2.2675118310     0.3597768518     1.2252349942
Bq         2.3833194554     0.3204689711     0.4346380775
Bq         2.2530358780     0.3646903368     1.3240596088
Bq         2.3977954084     0.3155554860     0.3358134630

1
2
3
4
5
6
7
8
9
10
11
12
13
14
15
16
17
18
19
20
21
22
23
24
25
26
27
28
29
30
31
32
33
34
35
36
37
38
39
40
41
42
43
44
45
46
47
48
49
50
51
52
53
54
55
56
57
58
59
60
61
62
63
64
65
66
67
68
69
70
71
72
73
74
75
76
77
78
79
80
81
82
83
84
85
86
87
88
89
90
91
92
93
94
95
96
97
98
99
100
101
102
103
104
105
106
107
108
109
110
111
112
113
114
115
116
117
118
119
120
121
122
123
124
125
126
127
128
129
130
131
132
133
134
135
136
137
138
139
140
141
142
143
144
145
146
147
148
149
150
151
152
153
154
155
156
157
158
159
160
161
162
163
164
165
166
167
168
169
170
171
172
173
174
175
176
177
178
179
180
181
182
183
184
185
186
187
188
189
190
191
192
193
194
195
196
197
198
199
200
201
202
203
204
205
206
207
208
209
210
211
212
213
214
215
216
217
218
219
220
221
222
223
224
225
226
227
228
229
230
231
232
233
234
235
236

