%nproc=8
%mem=1000MB
# rb3lyp/6-311+g** NMR geom=connectivity

Title

0 1
C    -4.0500558   -0.5771862    0.8136712
H    -5.0263804   -1.0082727    1.0024760
C    -3.9381552    0.6617804    0.2400876
H    -4.8252424    1.2338890   -0.0111295
C    -2.6768410    1.2433246    0.0057578
C    -1.4974121    0.5051527    0.2848253
C    -1.6508332   -0.7338728    0.9404026
H    -0.7713646   -1.2730967    1.2633753
C    -2.8898548   -1.2624035    1.1994307
H    -2.9683706   -2.2124563    1.7152676
C    -2.5773185    2.5963696   -0.4192930
H    -3.4870728    3.1412239   -0.6474055
C    -1.3741895    3.2147896   -0.4364030
H    -1.2997315    4.2742019   -0.6578144
C    -0.1719488    2.4994090   -0.1734588
C    -0.2043917    1.1018437    0.0192689
C     1.0513491    3.2042560   -0.0676222
H     1.0427344    4.2819499   -0.1896997
C     2.1942091    2.5487446    0.2579577
H     3.1168527    3.0912848    0.4334727
C     2.2216473    1.1336562    0.2934990
C     1.0486931    0.3945528    0.0302412
C     3.4483363    0.4614633    0.5573939
H     4.3095794    1.0606054    0.8334846
C     3.5427346   -0.8855926    0.4749463
H     4.4731467   -1.3939704    0.7038822
C     2.4490052   -1.6474447   -0.0196319
C     1.2150704   -1.0057258   -0.3013573
C     0.2531113   -1.7434440   -1.0216591
H    -0.6541356   -1.2535051   -1.3462847
C     0.4494193   -3.0628597   -1.3413779
H    -0.3083162   -3.5944309   -1.9054060
C     1.6251726   -3.7207967   -0.9552541
H     1.7670048   -4.7687404   -1.1927019
C     2.6109872   -3.0144177   -0.3183050
H     3.5525612   -3.4902813   -0.0646367
Bq         1.7534560496     0.6042071283     0.3576536953
Bq         1.5737039994     0.5046135151     1.0268101139
Bq         1.7791349140     0.6184347873     0.2620599212
Bq         1.5480251351     0.4903858560     1.1224038880
Bq         1.8048137783     0.6326624463     0.1664661471
Bq         1.6764194567     0.5615241512     0.6444350176
Bq         1.6470495418     0.6462791862     0.7537693312
Bq         1.6984072705     0.6747345042     0.5625817830
Bq         1.6213706775     0.6320515272     0.8493631053
Bq         1.7240861348     0.6889621633     0.4669880089
Bq         1.5956918132     0.6178238681     0.9449568794
Bq         1.7497649991     0.7031898223     0.3713942348
Bq         1.5700129488     0.6035962091     1.0405506535
Bq         1.7754438634     0.7174174813     0.2758004607
Bq         1.5443340845     0.5893685501     1.1361444276
Bq         1.8011227277     0.7316451404     0.1802066866
Bq         1.6727284061     0.6605068452     0.6581755571
Bq         1.6433584913     0.7452618802     0.7675098708
Bq         1.6947162199     0.7737171983     0.5763223226
Bq         1.6176796270     0.7310342212     0.8631036449
Bq         1.7203950842     0.7879448573     0.4807285485
Bq         1.5920007626     0.7168065622     0.9586974190
Bq         1.7460739486     0.8021725163     0.3851347744
Bq         1.5663218983     0.7025789031     1.0542911931
Bq         1.7717528129     0.8164001754     0.2895410003
Bq         1.5406430340     0.6883512441     1.1498849672
Bq         1.7974316772     0.8306278344     0.1939472262
Bq         1.6690373556     0.7594895393     0.6719160967
Bq         1.6396674407     0.8442445743     0.7812504103
Bq         1.6910251694     0.8726998923     0.5900628621
Bq         1.6139885764     0.8300169152     0.8768441844
Bq         1.7167040337     0.8869275513     0.4944690880
Bq         1.5883097121     0.8157892562     0.9724379585
Bq         1.7423828980     0.9011552104     0.3988753140
Bq         1.5626308478     0.8015615972     1.0680317326
Bq         1.7680617624     0.9153828694     0.3032815399
Bq         1.5369519835     0.7873339381     1.1636255067
Bq         1.7937406267     0.9296105284     0.2076877658
Bq         1.6653463051     0.8584722333     0.6856566362
Bq         1.6359763902     0.9432272683     0.7949909499
Bq         1.6873341189     0.9716825864     0.6038034017
Bq         1.6102975259     0.9289996093     0.8905847240
Bq         1.7130129832     0.9859102454     0.5082096276
Bq         1.5846186616     0.9147719502     0.9861784981
Bq         1.7386918475     1.0001379044     0.4126158535
Bq         1.5589397972     0.9005442912     1.0817722722
Bq         1.7643707118     1.0143655634     0.3170220794
Bq         1.5332609329     0.8863166322     1.1773660463
Bq         1.7900495761     1.0285932225     0.2214283053
Bq         1.6616552545     0.9574549273     0.6993971758
Bq         1.6322853397     1.0422099623     0.8087314894
Bq         1.6836430683     1.0706652804     0.6175439413
Bq         1.6066064753     1.0279823033     0.9043252635
Bq         1.7093219326     1.0848929394     0.5219501672
Bq         1.5809276110     1.0137546443     0.9999190376
Bq         1.7350007970     1.0991205984     0.4263563931
Bq         1.5552487467     0.9995269852     1.0955128117
Bq         1.7606796613     1.1133482575     0.3307626190
Bq         1.5295698824     0.9852993262     1.1911065858
Bq         1.7863585256     1.1275759165     0.2351688449
Bq         1.6579642040     1.0564376214     0.7131377154
Bq         1.6285942891     1.1411926564     0.8224720290
Bq         1.6799520178     1.1696479744     0.6312844808
Bq         1.6029154248     1.1269649973     0.9180658031
Bq         1.7056308821     1.1838756335     0.5356907067
Bq         1.5772365605     1.1127373383     1.0136595772
Bq         1.7313097464     1.1981032925     0.4400969326
Bq         1.5515576962     1.0985096793     1.1092533513
Bq         1.7569886107     1.2123309515     0.3445031585
Bq         1.5258788318     1.0842820203     1.2048471254
Bq         1.7826674751     1.2265586105     0.2489093844
Bq         1.6542731535     1.1554203154     0.7268782549
Bq         1.6249032386     1.2401753504     0.8362125686
Bq         1.6762609672     1.2686306685     0.6450250204
Bq         1.5992243743     1.2259476914     0.9318063427
Bq         1.7019398316     1.2828583275     0.5494312463
Bq         1.5735455100     1.2117200323     1.0274001168
Bq         1.7276186959     1.2970859865     0.4538374722
Bq         1.5478666456     1.1974923733     1.1229938909
Bq         1.7532975602     1.3113136455     0.3582436981
Bq         1.5221877813     1.1832647143     1.2185876649
Bq         1.7789764245     1.3255413046     0.2626499240
Bq         1.6505821029     1.2544030094     0.7406187945
Bq         1.6212121881     1.3391580444     0.8499531081
Bq         1.6725699167     1.3676133625     0.6587655599
Bq         1.5955333237     1.3249303854     0.9455468822
Bq         1.6982487810     1.3818410215     0.5631717858
Bq         1.5698544594     1.3107027264     1.0411406563
Bq         1.7239276454     1.3960686806     0.4675780117
Bq         1.5441755951     1.2964750674     1.1367344304
Bq         1.7496065097     1.4102963396     0.3719842377
Bq         1.5184967308     1.2822474083     1.2323282045
Bq         1.7752853740     1.4245239986     0.2763904636
Bq         1.6468910524     1.3533857035     0.7543593340
Bq         1.6175211375     1.4381407385     0.8636936477
Bq         1.6688788662     1.4665960565     0.6725060995
Bq         1.5918422732     1.4239130794     0.9592874218
Bq         1.6945577305     1.4808237156     0.5769123254
Bq         1.5661634089     1.4096854204     1.0548811959
Bq         1.7202365948     1.4950513746     0.4813185513
Bq         1.5404845446     1.3954577614     1.1504749700
Bq         1.7459154591     1.5092790336     0.3857247772
Bq         1.5148056802     1.3812301024     1.2460687441
Bq         1.7715943235     1.5235066926     0.2901310031
Bq         1.6432000019     1.4523683975     0.7680998736
Bq         1.6138300870     1.5371234325     0.8774341872
Bq         1.6651878156     1.5655787506     0.6862466391
Bq         1.5881512227     1.5228957735     0.9730279613
Bq         1.6908666800     1.5798064096     0.5906528650
Bq         1.5624723583     1.5086681145     1.0686217354
Bq         1.7165455443     1.5940340686     0.4950590909
Bq         1.5367934940     1.4944404554     1.1642155095
Bq         1.7422244086     1.6082617277     0.3994653168
Bq         1.5111146297     1.4802127964     1.2598092836
Bq         1.7679032729     1.6224893867     0.3038715427
Bq         1.6395089513     1.5513510915     0.7818404131
Bq         1.6101390365     1.6361061265     0.8911747268
Bq         1.6614967651     1.6645614446     0.6999871786
Bq         1.5844601721     1.6218784675     0.9867685009
Bq         1.6871756294     1.6787891036     0.6043934045
Bq         1.5587813078     1.6076508085     1.0823622750
Bq         1.7128544937     1.6930167627     0.5087996304
Bq         1.5331024435     1.5934231495     1.1779560491
Bq         1.7385333581     1.7072444217     0.4132058563
Bq         1.5074235792     1.5791954904     1.2735498232
Bq         1.7642122224     1.7214720807     0.3176120822
Bq         1.6358179008     1.6503337856     0.7955809527
Bq         1.6064479859     1.7350888206     0.9049152664
Bq         1.6578057146     1.7635441386     0.7137277182
Bq         1.5807691216     1.7208611616     1.0005090405
Bq         1.6834845789     1.7777717977     0.6181339441
Bq         1.5550902573     1.7066335025     1.0961028145
Bq         1.7091634432     1.7919994567     0.5225401700
Bq         1.5294113930     1.6924058435     1.1916965886
Bq         1.7348423075     1.8062271157     0.4269463959
Bq         1.5037325286     1.6781781845     1.2872903627
Bq         1.7605211719     1.8204547748     0.3313526218
Bq         1.6321268502     1.7493164796     0.8093214923
Bq         1.6027569354     1.8340715146     0.9186558059
Bq         1.6541146640     1.8625268327     0.7274682577
Bq         1.5770780711     1.8198438556     1.0142495800
Bq         1.6797935284     1.8767544917     0.6318744836
Bq         1.5513992067     1.8056161966     1.1098433541
Bq         1.7054723927     1.8909821507     0.5362807095
Bq         1.5257203424     1.7913885375     1.2054371282
Bq         1.7311512570     1.9052098098     0.4406869354
Bq         1.5000414781     1.7771608785     1.3010309023
Bq         1.7568301213     1.9194374688     0.3450931614
Bq         1.6284357997     1.8482991736     0.8230620318
Bq         1.5990658849     1.9330542087     0.9323963455
Bq         1.6504236135     1.9615095267     0.7412087973
Bq         1.5733870205     1.9188265496     1.0279901196
Bq         1.6761024778     1.9757371857     0.6456150232
Bq         1.5477081562     1.9045988906     1.1235838937
Bq         1.7017813421     1.9899648448     0.5500212491
Bq         1.5220292919     1.8903712316     1.2191776678
Bq         1.7274602065     2.0041925038     0.4544274750
Bq         1.4963504276     1.8761435725     1.3147714419
Bq         1.7531390708     2.0184201628     0.3588337009
Bq         1.6247447492     1.9472818677     0.8368025714
Bq         1.5953748343     2.0320369027     0.9461368850
Bq         1.6467325630     2.0604922207     0.7549493368
Bq         1.5696959700     2.0178092437     1.0417306591
Bq         1.6724114273     2.0747198798     0.6593555628
Bq         1.5440171057     2.0035815846     1.1373244332
Bq         1.6980902916     2.0889475388     0.5637617887
Bq         1.5183382413     1.9893539256     1.2329182073
Bq         1.7237691559     2.1031751978     0.4681680146
Bq         1.4926593770     1.9751262666     1.3285119814
Bq         1.7494480203     2.1174028569     0.3725742405
Bq         1.6210536986     2.0462645617     0.8505431109
Bq         1.5916837838     2.1310195967     0.9598774246
Bq         1.6430415124     2.1594749148     0.7686898764
Bq         1.5660049195     2.1167919377     1.0554711987
Bq         1.6687203767     2.1737025738     0.6730961023
Bq         1.5403260551     2.1025642787     1.1510649728
Bq         1.6943992411     2.1879302328     0.5775023282
Bq         1.5146471908     2.0883366196     1.2466587469
Bq         1.7200781054     2.2021578919     0.4819085541
Bq         1.4889683265     2.0741089606     1.3422525210
Bq         1.7457569697     2.2163855509     0.3863147800
Bq         1.6173626481     2.1452472558     0.8642836505
Bq         1.8728125606    -2.8181151051     0.2987932284
Bq         1.9241702892    -2.7896597870     0.1076056803
Bq         1.8471336963    -2.8323427641     0.3943870025
Bq         1.9498491536    -2.7754321280     0.0120119062
Bq         1.8214548320    -2.8465704231     0.4899807766
Bq         1.9755280179    -2.7612044690    -0.0835818679
Bq         1.7957759676    -2.8607980821     0.5855745507
Bq         2.0012068822    -2.7469768099    -0.1791756420
Bq         1.7700971033    -2.8750257412     0.6811683248
Bq         2.0268857465    -2.7327491509    -0.2747694161
Bq         1.8984914249    -2.8038874460     0.2031994543
Bq         1.8691215101    -2.7191324110     0.3125337680
Bq         1.9204792387    -2.6906770930     0.1213462198
Bq         1.8434426457    -2.7333600701     0.4081275421
Bq         1.9461581030    -2.6764494339     0.0257524457
Bq         1.8177637814    -2.7475877291     0.5037213162
Bq         1.9718369674    -2.6622217749    -0.0698413284
Bq         1.7920849171    -2.7618153881     0.5993150903

1
2
3
4
5
6
7
8
9
10
11
12
13
14
15
16
17
18
19
20
21
22
23
24
25
26
27
28
29
30
31
32
33
34
35
36
37
38
39
40
41
42
43
44
45
46
47
48
49
50
51
52
53
54
55
56
57
58
59
60
61
62
63
64
65
66
67
68
69
70
71
72
73
74
75
76
77
78
79
80
81
82
83
84
85
86
87
88
89
90
91
92
93
94
95
96
97
98
99
100
101
102
103
104
105
106
107
108
109
110
111
112
113
114
115
116
117
118
119
120
121
122
123
124
125
126
127
128
129
130
131
132
133
134
135
136
137
138
139
140
141
142
143
144
145
146
147
148
149
150
151
152
153
154
155
156
157
158
159
160
161
162
163
164
165
166
167
168
169
170
171
172
173
174
175
176
177
178
179
180
181
182
183
184
185
186
187
188
189
190
191
192
193
194
195
196
197
198
199
200
201
202
203
204
205
206
207
208
209
210
211
212
213
214
215
216
217
218
219
220
221
222
223
224
225
226
227
228
229
230
231
232
233
234
235
236

