%nproc=8
%mem=1000MB
# rb3lyp/6-311+g** NMR geom=connectivity

Title

0 1
C    -4.0500558   -0.5771862    0.8136712
H    -5.0263804   -1.0082727    1.0024760
C    -3.9381552    0.6617804    0.2400876
H    -4.8252424    1.2338890   -0.0111295
C    -2.6768410    1.2433246    0.0057578
C    -1.4974121    0.5051527    0.2848253
C    -1.6508332   -0.7338728    0.9404026
H    -0.7713646   -1.2730967    1.2633753
C    -2.8898548   -1.2624035    1.1994307
H    -2.9683706   -2.2124563    1.7152676
C    -2.5773185    2.5963696   -0.4192930
H    -3.4870728    3.1412239   -0.6474055
C    -1.3741895    3.2147896   -0.4364030
H    -1.2997315    4.2742019   -0.6578144
C    -0.1719488    2.4994090   -0.1734588
C    -0.2043917    1.1018437    0.0192689
C     1.0513491    3.2042560   -0.0676222
H     1.0427344    4.2819499   -0.1896997
C     2.1942091    2.5487446    0.2579577
H     3.1168527    3.0912848    0.4334727
C     2.2216473    1.1336562    0.2934990
C     1.0486931    0.3945528    0.0302412
C     3.4483363    0.4614633    0.5573939
H     4.3095794    1.0606054    0.8334846
C     3.5427346   -0.8855926    0.4749463
H     4.4731467   -1.3939704    0.7038822
C     2.4490052   -1.6474447   -0.0196319
C     1.2150704   -1.0057258   -0.3013573
C     0.2531113   -1.7434440   -1.0216591
H    -0.6541356   -1.2535051   -1.3462847
C     0.4494193   -3.0628597   -1.3413779
H    -0.3083162   -3.5944309   -1.9054060
C     1.6251726   -3.7207967   -0.9552541
H     1.7670048   -4.7687404   -1.1927019
C     2.6109872   -3.0144177   -0.3183050
H     3.5525612   -3.4902813   -0.0646367
Bq         1.6574858785    -0.2689793510     0.5600027229
Bq         1.5851061133    -0.2444119256     1.0541257958
Bq         1.6719618316    -0.2738928361     0.4611781083
Bq         1.5706301603    -0.2394984405     1.1529504104
Bq         1.6864377846    -0.2788063212     0.3623534937
Bq         1.5561542072    -0.2345849554     1.2517750250
Bq         1.7009137377    -0.2837198063     0.2635288792
Bq         1.6285339724    -0.2591523808     0.7576519521
Bq         1.6147701533    -0.1543596804     0.8516149619
Bq         1.6437220594    -0.1641866505     0.6539657327
Bq         1.6002942003    -0.1494461953     0.9504395765
Bq         1.6581980125    -0.1691001356     0.5551411181
Bq         1.5858182472    -0.1445327102     1.0492641911
Bq         1.6726739655    -0.1740136207     0.4563165036
Bq         1.5713422942    -0.1396192251     1.1480888057
Bq         1.6871499186    -0.1789271058     0.3574918890
Bq         1.5568663412    -0.1347057400     1.2469134202
Bq         1.7016258716    -0.1838405909     0.2586672744
Bq         1.6292461064    -0.1592731655     0.7527903473
Bq         1.6154822873    -0.0544804650     0.8467533571
Bq         1.6444341934    -0.0643074352     0.6491041280
Bq         1.6010063342    -0.0495669799     0.9455779717
Bq         1.6589101464    -0.0692209203     0.5502795134
Bq         1.5865303812    -0.0446534948     1.0444025863
Bq         1.6733860995    -0.0741344053     0.4514548988
Bq         1.5720544281    -0.0397400098     1.1432272009
Bq         1.6878620525    -0.0790478904     0.3526302842
Bq         1.5575784751    -0.0348265247     1.2420518155
Bq         1.7023380055    -0.0839613755     0.2538056696
Bq         1.6299582403    -0.0593939501     0.7479287426
Bq         1.6161944212     0.0453987504     0.8418917524
Bq         1.6451463273     0.0355717802     0.6442425232
Bq         1.6017184682     0.0503122355     0.9407163670
Bq         1.6596222804     0.0306582951     0.5454179086
Bq         1.5872425151     0.0552257205     1.0395409815
Bq         1.6740982334     0.0257448100     0.4465932940
Bq         1.5727665621     0.0601392056     1.1383655961
Bq         1.6885741864     0.0208313250     0.3477686794
Bq         1.5582906090     0.0650526907     1.2371902107
Bq         1.7030501395     0.0159178399     0.2489440649
Bq         1.6306703743     0.0404852653     0.7430671378
Bq         1.6169065552     0.1452779658     0.8370301476
Bq         1.6458584612     0.1354509956     0.6393809184
Bq         1.6024306021     0.1501914508     0.9358547622
Bq         1.6603344143     0.1305375105     0.5405563038
Bq         1.5879546491     0.1551049359     1.0346793768
Bq         1.6748103673     0.1256240254     0.4417316893
Bq         1.5734786960     0.1600184210     1.1335039914
Bq         1.6892863204     0.1207105403     0.3429070747
Bq         1.5590027430     0.1649319061     1.2323286059
Bq         1.7037622734     0.1157970553     0.2440824601
Bq         1.6313825082     0.1403644807     0.7382055330
Bq         1.6176186891     0.2451571811     0.8321685428
Bq         1.6465705952     0.2353302110     0.6345193137
Bq         1.6031427361     0.2500706662     0.9309931574
Bq         1.6610465482     0.2304167259     0.5356946991
Bq         1.5886667830     0.2549841513     1.0298177720
Bq         1.6755225013     0.2255032408     0.4368700845
Bq         1.5741908300     0.2598976364     1.1286423866
Bq         1.6899984543     0.2205897557     0.3380454699
Bq         1.5597148769     0.2648111215     1.2274670012
Bq         1.7044744074     0.2156762706     0.2392208553
Bq         1.6320946421     0.2402436960     0.7333439283
Bq         1.6183308230     0.3450363965     0.8273069381
Bq         1.6472827291     0.3352094263     0.6296577089
Bq         1.6038548700     0.3499498816     0.9261315527
Bq         1.6617586822     0.3302959413     0.5308330943
Bq         1.5893789170     0.3548633667     1.0249561672
Bq         1.6762346352     0.3253824562     0.4320084797
Bq         1.5749029639     0.3597768518     1.1237807818
Bq         1.6907105883     0.3204689711     0.3331838651
Bq         1.5604270109     0.3646903368     1.2226053964
Bq         1.7051865413     0.3155554860     0.2343592506
Bq         1.6328067761     0.3401229114     0.7284823235
Bq         1.6190429570     0.4449156119     0.8224453333
Bq         1.6479948631     0.4350886417     0.6247961041
Bq         1.6045670039     0.4498290970     0.9212699479
Bq         1.6624708161     0.4301751566     0.5259714895
Bq         1.5900910509     0.4547425820     1.0200945625
Bq         1.6769467692     0.4252616716     0.4271468750
Bq         1.5756150979     0.4596560671     1.1189191771
Bq         1.6914227222     0.4203481865     0.3283222604
Bq         1.5611391448     0.4645695522     1.2177437916
Bq         1.7058986753     0.4154347014     0.2294976458
Bq         1.6335189100     0.4400021268     0.7236207187
Bq         1.6197550909     0.5447948273     0.8175837285
Bq         1.6487069970     0.5349678571     0.6199344994
Bq         1.6052791379     0.5497083123     0.9164083431
Bq         1.6631829501     0.5300543720     0.5211098848
Bq         1.5908031848     0.5546217974     1.0152329577
Bq         1.6776589031     0.5251408869     0.4222852702
Bq         1.5763272318     0.5595352825     1.1140575723
Bq         1.6921348561     0.5202274018     0.3234606556
Bq         1.5618512787     0.5644487676     1.2128821869
Bq         1.7066108092     0.5153139168     0.2246360410
Bq         1.6342310440     0.5398813422     0.7187591140
Bq         1.6204672249     0.6446740426     0.8127221238
Bq         1.6494191310     0.6348470725     0.6150728946
Bq         1.6059912718     0.6495875277     0.9115467384
Bq         1.6638950840     0.6299335874     0.5162482800
Bq         1.5915153188     0.6545010128     1.0103713529
Bq         1.6783710370     0.6250201023     0.4174236654
Bq         1.5770393657     0.6594144979     1.1091959675
Bq         1.6928469901     0.6201066172     0.3185990508
Bq         1.5625634127     0.6643279830     1.2080205821
Bq         1.7073229431     0.6151931321     0.2197744363
Bq         1.6349431779     0.6397605576     0.7138975092
Bq         1.6211793588     0.7445532580     0.8078605190
Bq         1.6501312649     0.7347262878     0.6102112898
Bq         1.6067034058     0.7494667431     0.9066851336
Bq         1.6646072179     0.7298128028     0.5113866752
Bq         1.5922274527     0.7543802282     1.0055097482
Bq         1.6790831710     0.7248993177     0.4125620607
Bq         1.5777514997     0.7592937133     1.1043343628
Bq         1.6935591240     0.7199858326     0.3137374461
Bq         1.5632755466     0.7642071983     1.2031589773
Bq         1.7080350771     0.7150723475     0.2149128315
Bq         1.6356553119     0.7396397729     0.7090359044
Bq         1.6218914928     0.8444324734     0.8029989142
Bq         1.6508433988     0.8346055032     0.6053496851
Bq         1.6074155397     0.8493459585     0.9018235288
Bq         1.6653193519     0.8296920181     0.5065250705
Bq         1.5929395867     0.8542594436     1.0006481434
Bq         1.6797953049     0.8247785331     0.4077004559
Bq         1.5784636336     0.8591729286     1.0994727580
Bq         1.6942712580     0.8198650480     0.3088758413
Bq         1.5639876806     0.8640864137     1.1982973726
Bq         1.7087472110     0.8149515629     0.2100512267
Bq         1.6363674458     0.8395189883     0.7041742997
Bq         1.6226036267     0.9443116888     0.7981373095
Bq         1.6515555328     0.9344847186     0.6004880803
Bq         1.6081276736     0.9492251739     0.8969619241
Bq         1.6660314858     0.9295712335     0.5016634657
Bq         1.5936517206     0.9541386589     0.9957865386
Bq         1.6805074389     0.9246577484     0.4028388511
Bq         1.5791757676     0.9590521440     1.0946111532
Bq         1.6949833919     0.9197442634     0.3040142365
Bq         1.5646998145     0.9639656291     1.1934357678
Bq         1.7094593450     0.9148307783     0.2051896220
Bq         1.6370795797     0.9393982037     0.6993126949
Bq         1.6233157606     1.0441909041     0.7932757047
Bq         1.6522676667     1.0343639340     0.5956264755
Bq         1.6088398076     1.0491043892     0.8921003193
Bq         1.6667436198     1.0294504489     0.4968018610
Bq         1.5943638545     1.0540178743     0.9909249339
Bq         1.6812195728     1.0245369638     0.3979772464
Bq         1.5798879015     1.0589313594     1.0897495485
Bq         1.6956955259     1.0196234787     0.2991526318
Bq         1.5654119485     1.0638448445     1.1885741630
Bq         1.7101714789     1.0147099936     0.2003280172
Bq         1.6377917137     1.0392774191     0.6944510901
Bq         1.6240278946     1.1440701195     0.7884140999
Bq         1.6529798007     1.1342431494     0.5907648708
Bq         1.6095519415     1.1489836046     0.8872387145
Bq         1.6674557537     1.1293296643     0.4919402562
Bq         1.5950759885     1.1538970897     0.9860633291
Bq         1.6819317068     1.1244161792     0.3931156416
Bq         1.5806000354     1.1588105748     1.0848879437
Bq         1.6964076598     1.1195026941     0.2942910270
Bq         1.5661240824     1.1637240599     1.1837125583
Bq         1.7108836128     1.1145892090     0.1954664124
Bq         1.6385038476     1.1391566344     0.6895894854
Bq         1.6247400285     1.2439493349     0.7835524952
Bq         1.6536919346     1.2341223647     0.5859032660
Bq         1.6102640755     1.2488628200     0.8823771098
Bq         1.6681678877     1.2292088797     0.4870786514
Bq         1.5957881224     1.2537763051     0.9812017243
Bq         1.6826438407     1.2242953946     0.3882540368
Bq         1.5813121694     1.2586897901     1.0800263389
Bq         1.6971197937     1.2193819095     0.2894294222
Bq         1.5668362163     1.2636032752     1.1788509535
Bq         1.7115957468     1.2144684244     0.1906048077
Bq         1.6392159816     1.2390358498     0.6847278806
Bq         1.6254521625     1.3438285503     0.7786908904
Bq         1.6544040685     1.3340015801     0.5810416612
Bq         1.6109762094     1.3487420354     0.8775155050
Bq         1.6688800216     1.3290880950     0.4822170467
Bq         1.5965002564     1.3536555204     0.9763401196
Bq         1.6833559746     1.3241746099     0.3833924321
Bq         1.5820243033     1.3585690055     1.0751647342
Bq         1.6978319277     1.3192611249     0.2845678175
Bq         1.5675483503     1.3634824906     1.1739893487
Bq         1.7123078807     1.3143476398     0.1857432029
Bq         1.6399281155     1.3389150652     0.6798662758
Bq         1.6261642964     1.4437077657     0.7738292856
Bq         1.6551162025     1.4338807955     0.5761800565
Bq         1.6116883434     1.4486212507     0.8726539002
Bq         1.6695921555     1.4289673104     0.4773554419
Bq         1.5972123903     1.4535347358     0.9714785148
Bq         1.6840681086     1.4240538253     0.3785308273
Bq         1.5827364373     1.4584482209     1.0703031294
Bq         1.6985440616     1.4191403402     0.2797062127
Bq         1.5682604842     1.4633617060     1.1691277440
Bq         1.7130200147     1.4142268552     0.1808815981
Bq         1.6406402494     1.4387942806     0.6750046711
Bq         1.6268764303     1.5435869810     0.7689676809
Bq         1.6558283364     1.5337600109     0.5713184517
Bq         1.6124004773     1.5485004661     0.8677922955
Bq         1.6703042895     1.5288465258     0.4724938371
Bq         1.5979245243     1.5534139512     0.9666169100

1
2
3
4
5
6
7
8
9
10
11
12
13
14
15
16
17
18
19
20
21
22
23
24
25
26
27
28
29
30
31
32
33
34
35
36
37
38
39
40
41
42
43
44
45
46
47
48
49
50
51
52
53
54
55
56
57
58
59
60
61
62
63
64
65
66
67
68
69
70
71
72
73
74
75
76
77
78
79
80
81
82
83
84
85
86
87
88
89
90
91
92
93
94
95
96
97
98
99
100
101
102
103
104
105
106
107
108
109
110
111
112
113
114
115
116
117
118
119
120
121
122
123
124
125
126
127
128
129
130
131
132
133
134
135
136
137
138
139
140
141
142
143
144
145
146
147
148
149
150
151
152
153
154
155
156
157
158
159
160
161
162
163
164
165
166
167
168
169
170
171
172
173
174
175
176
177
178
179
180
181
182
183
184
185
186
187
188
189
190
191
192
193
194
195
196
197
198
199
200
201
202
203
204
205
206
207
208
209
210
211
212
213
214
215
216
217
218
219
220
221
222
223
224
225
226
227
228
229
230
231
232
233
234
235
236

