%nproc=8
%mem=1000MB
# rb3lyp/6-311+g** NMR geom=connectivity

Title

0 1
C    -4.0500558   -0.5771862    0.8136712
H    -5.0263804   -1.0082727    1.0024760
C    -3.9381552    0.6617804    0.2400876
H    -4.8252424    1.2338890   -0.0111295
C    -2.6768410    1.2433246    0.0057578
C    -1.4974121    0.5051527    0.2848253
C    -1.6508332   -0.7338728    0.9404026
H    -0.7713646   -1.2730967    1.2633753
C    -2.8898548   -1.2624035    1.1994307
H    -2.9683706   -2.2124563    1.7152676
C    -2.5773185    2.5963696   -0.4192930
H    -3.4870728    3.1412239   -0.6474055
C    -1.3741895    3.2147896   -0.4364030
H    -1.2997315    4.2742019   -0.6578144
C    -0.1719488    2.4994090   -0.1734588
C    -0.2043917    1.1018437    0.0192689
C     1.0513491    3.2042560   -0.0676222
H     1.0427344    4.2819499   -0.1896997
C     2.1942091    2.5487446    0.2579577
H     3.1168527    3.0912848    0.4334727
C     2.2216473    1.1336562    0.2934990
C     1.0486931    0.3945528    0.0302412
C     3.4483363    0.4614633    0.5573939
H     4.3095794    1.0606054    0.8334846
C     3.5427346   -0.8855926    0.4749463
H     4.4731467   -1.3939704    0.7038822
C     2.4490052   -1.6474447   -0.0196319
C     1.2150704   -1.0057258   -0.3013573
C     0.2531113   -1.7434440   -1.0216591
H    -0.6541356   -1.2535051   -1.3462847
C     0.4494193   -3.0628597   -1.3413779
H    -0.3083162   -3.5944309   -1.9054060
C     1.6251726   -3.7207967   -0.9552541
H     1.7670048   -4.7687404   -1.1927019
C     2.6109872   -3.0144177   -0.3183050
H     3.5525612   -3.4902813   -0.0646367
Bq         3.0908417424    -2.1032181363     0.2865812910
Bq         2.7320858683    -2.3427589963     1.0764638134
Bq         3.1307035062    -2.0766024852     0.1988165663
Bq         2.9313946872    -2.2096807407     0.6376401899
Bq         2.8805264501    -2.1399034091     0.7496381650
Bq         2.9602499777    -2.0866721069     0.5741087156
Bq         2.8406646863    -2.1665190602     0.8374028898
Bq         3.0001117414    -2.0600564558     0.4863439909
Bq         2.8008029225    -2.1931347113     0.9251676145
Bq         3.0399735052    -2.0334408047     0.3985792662
Bq         2.7609411587    -2.2197503624     1.0129323392
Bq         3.0798352690    -2.0068251536     0.3108145415
Bq         2.7210793949    -2.2463660136     1.1006970639
Bq         3.1196970328    -1.9802095025     0.2230498168
Bq         2.9203882139    -2.1132877580     0.6618734403
Bq         2.8695199767    -2.0435104264     0.7738714155
Bq         2.9492435043    -1.9902791242     0.5983419661
Bq         2.8296582129    -2.0701260775     0.8616361402
Bq         2.9891052681    -1.9636634731     0.5105772414
Bq         2.7897964491    -2.0967417286     0.9494008649
Bq         3.0289670319    -1.9370478220     0.4228125167
Bq         2.7499346853    -2.1233573797     1.0371655896
Bq         3.0688287956    -1.9104321709     0.3350477919
Bq         2.7100729216    -2.1499730308     1.1249303144
Bq         3.1086905594    -1.8838165198     0.2472830672
Bq         2.9093817405    -2.0168947753     0.6861066908
Bq         2.8585135033    -1.9471174437     0.7981046660
Bq         2.9382370309    -1.8938861415     0.6225752165
Bq         2.8186517395    -1.9737330948     0.8858693907
Bq         2.9780987947    -1.8672704904     0.5348104918
Bq         2.7787899758    -2.0003487459     0.9736341154
Bq         3.0179605585    -1.8406548393     0.4470457671
Bq         2.7389282120    -2.0269643970     1.0613988401
Bq         3.0578223223    -1.8140391882     0.3592810424
Bq         2.6990664482    -2.0535800481     1.1491635648
Bq         3.0976840861    -1.7874235371     0.2715163177
Bq         2.8983752671    -1.9205017926     0.7103399413
Bq         2.8475070300    -1.8507244610     0.8223379164
Bq         2.9272305575    -1.7974931588     0.6468084670
Bq         2.8076452662    -1.8773401121     0.9101026411
Bq         2.9670923213    -1.7708775077     0.5590437423
Bq         2.7677835024    -1.9039557632     0.9978673658
Bq         3.0069540851    -1.7442618566     0.4712790176
Bq         2.7279217386    -1.9305714143     1.0856320906
Bq         3.0468158489    -1.7176462055     0.3835142929
Bq         2.6880599748    -1.9571870654     1.1733968153
Bq         3.0866776127    -1.6910305543     0.2957495681
Bq         2.8873687937    -1.8241088099     0.7345731917
Bq         2.8365005566    -1.7543314783     0.8465711669
Bq         2.9162240842    -1.7011001761     0.6710417175
Bq         2.7966387928    -1.7809471294     0.9343358916
Bq         2.9560858480    -1.6744845250     0.5832769927
Bq         2.7567770290    -1.8075627805     1.0221006163
Bq         2.9959476117    -1.6478688739     0.4955122680
Bq         2.7169152652    -1.8341784316     1.1098653410
Bq         3.0358093755    -1.6212532227     0.4077475433
Bq         2.6770535014    -1.8607940827     1.1976300657
Bq         3.0756711393    -1.5946375716     0.3199828186
Bq         2.8763623204    -1.7277158272     0.7588064422
Bq         2.8254940832    -1.6579384956     0.8708044173
Bq         2.9052176108    -1.6047071934     0.6952749679
Bq         2.7856323194    -1.6845541467     0.9585691420
Bq         2.9450793746    -1.5780915422     0.6075102432
Bq         2.7457705556    -1.7111697978     1.0463338668
Bq         2.9849411384    -1.5514758911     0.5197455185
Bq         2.7059087919    -1.7377854489     1.1340985915
Bq         3.0248029022    -1.5248602400     0.4319807938
Bq         2.6660470281    -1.7644011000     1.2218633162
Bq         3.0646646659    -1.4982445889     0.3442160691
Bq         2.8653558470    -1.6313228445     0.7830396926
Bq         2.8144876098    -1.5615455129     0.8950376678
Bq         2.8942111374    -1.5083142106     0.7195082184
Bq         2.7746258461    -1.5881611640     0.9828023925
Bq         2.9340729012    -1.4816985595     0.6317434937
Bq         2.7347640823    -1.6147768151     1.0705671172
Bq         2.9739346650    -1.4550829084     0.5439787689
Bq         2.6949023185    -1.6413924662     1.1583318419
Bq         3.0137964288    -1.4284672573     0.4562140442
Bq         2.6550405547    -1.6680081173     1.2460965666
Bq         3.0536581926    -1.4018516062     0.3684493195
Bq         2.8543493736    -1.5349298617     0.8072729431
Bq         2.8034811365    -1.4651525301     0.9192709183
Bq         2.8832046640    -1.4119212279     0.7437414688
Bq         2.7636193727    -1.4917681812     1.0070356430
Bq         2.9230664278    -1.3853055768     0.6559767441
Bq         2.7237576089    -1.5183838324     1.0948003677
Bq         2.9629281916    -1.3586899257     0.5682120194
Bq         2.6838958451    -1.5449994835     1.1825650924
Bq         3.0027899554    -1.3320742746     0.4804472947
Bq         2.6440340813    -1.5716151346     1.2703298171
Bq         3.0426517192    -1.3054586235     0.3926825700
Bq         2.8433429003    -1.4385368790     0.8315061935
Bq         2.7924746631    -1.3687595474     0.9435041687
Bq         2.8721981907    -1.3155282452     0.7679747193
Bq         2.7526128993    -1.3953751985     1.0312688934
Bq         2.9120599545    -1.2889125941     0.6802099946
Bq         2.7127511355    -1.4219908496     1.1190336181
Bq         2.9519217182    -1.2622969430     0.5924452699
Bq         2.6728893717    -1.4486065008     1.2067983428
Bq         2.9917834820    -1.2356812919     0.5046805451
Bq         2.6330276079    -1.4752221519     1.2945630676
Bq         3.0316452458    -1.2090656408     0.4169158204
Bq         2.8323364269    -1.3421438963     0.8557394440
Bq         2.7814681897    -1.2723665647     0.9677374192
Bq         2.8611917173    -1.2191352625     0.7922079697
Bq         2.7416064259    -1.2989822158     1.0555021439
Bq         2.9010534811    -1.1925196114     0.7044432450
Bq         2.7017446622    -1.3255978669     1.1432668686
Bq         2.9409152449    -1.1659039603     0.6166785203
Bq         2.6618828984    -1.3522135180     1.2310315933
Bq         2.9807770087    -1.1392883092     0.5289137956
Bq         2.6220211346    -1.3788291691     1.3187963180
Bq         3.0206387725    -1.1126726581     0.4411490709
Bq         2.8213299535    -1.2457509136     0.8799726945
Bq         2.7704617164    -1.1759735820     0.9919706696
Bq         2.8501852439    -1.1227422798     0.8164412202
Bq         2.7305999526    -1.2025892331     1.0797353943
Bq         2.8900470077    -1.0961266287     0.7286764955
Bq         2.6907381888    -1.2292048842     1.1675001191
Bq         2.9299087715    -1.0695109776     0.6409117708
Bq         2.6508764250    -1.2558205353     1.2552648438
Bq         2.9697705353    -1.0428953265     0.5531470461
Bq         2.6110146612    -1.2824361864     1.3430295685
Bq         3.0096322991    -1.0162796754     0.4653823214
Bq         2.8103234801    -1.1493579309     0.9042059449
Bq         2.7594552430    -1.0795805993     1.0162039201
Bq         2.8391787706    -1.0263492971     0.8406744707
Bq         2.7195934792    -1.1061962504     1.1039686448
Bq         2.8790405343    -0.9997336460     0.7529097459
Bq         2.6797317154    -1.1328119015     1.1917333695
Bq         2.9189022981    -0.9731179949     0.6651450212
Bq         2.6398699516    -1.1594275526     1.2794980942
Bq         2.9587640619    -0.9465023438     0.5773802965
Bq         2.6000081878    -1.1860432037     1.3672628189
Bq         2.9986258257    -0.9198866927     0.4896155718
Bq         2.7993170068    -1.0529649482     0.9284391954
Bq         2.7484487696    -0.9831876166     1.0404371705
Bq         2.8281722972    -0.9299563144     0.8649077211
Bq         2.7085870058    -1.0098032677     1.1282018953
Bq         2.8680340610    -0.9033406633     0.7771429964
Bq         2.6687252420    -1.0364189188     1.2159666200
Bq         2.9078958248    -0.8767250122     0.6893782717
Bq         2.6288634782    -1.0630345699     1.3037313447
Bq         2.9477575885    -0.8501093610     0.6016135470
Bq         2.5890017145    -1.0896502210     1.3914960694
Bq         2.9876193523    -0.8234937099     0.5138488223
Bq         2.7883105334    -0.9565719655     0.9526724458
Bq         2.7374422962    -0.8867946339     1.0646704210
Bq         2.8171658238    -0.8335633317     0.8891409716
Bq         2.6975805325    -0.9134102850     1.1524351457
Bq         2.8570275876    -0.8069476805     0.8013762469
Bq         2.6577187687    -0.9400259361     1.2401998704
Bq         2.8968893514    -0.7803320294     0.7136115222
Bq         2.6178570049    -0.9666415872     1.3279645951
Bq         2.9367511152    -0.7537163783     0.6258467974
Bq         2.5779952411    -0.9932572383     1.4157293199
Bq         2.9766128790    -0.7271007272     0.5380820727
Bq         2.7773040600    -0.8601789828     0.9769056963
Bq         2.7264358229    -0.7904016512     1.0889036715
Bq         2.8061593504    -0.7371703489     0.9133742220
Bq         2.6865740591    -0.8170173023     1.1766683962
Bq         2.8460211142    -0.7105546978     0.8256094973
Bq         2.6467122953    -0.8436329534     1.2644331209
Bq         2.8858828780    -0.6839390467     0.7378447726
Bq         2.6068505315    -0.8702486045     1.3521978456
Bq         2.9257446418    -0.6573233956     0.6500800479
Bq         2.5669887677    -0.8968642556     1.4399625703
Bq         2.9656064056    -0.6307077445     0.5623153232
Bq         2.7662975867    -0.7637860000     1.0011389467
Bq         2.7154293495    -0.6940086684     1.1131369219
Bq         2.7951528771    -0.6407773662     0.9376074725
Bq         2.6755675857    -0.7206243196     1.2009016466
Bq         2.8350146409    -0.6141617151     0.8498427478
Bq         2.6357058219    -0.7472399707     1.2886663713
Bq         2.8748764046    -0.5875460640     0.7620780231
Bq         2.5958440581    -0.7738556218     1.3764310961
Bq         2.9147381684    -0.5609304129     0.6743132984
Bq         2.5559822943    -0.8004712729     1.4641958208
Bq         2.9545999322    -0.5343147618     0.5865485736
Bq         2.7552911133    -0.6673930173     1.0253721972
Bq         2.7044228761    -0.5976156857     1.1373701724
Bq         2.7841464037    -0.5443843835     0.9618407229
Bq         2.6645611123    -0.6242313368     1.2251348971
Bq         2.8240081675    -0.5177687324     0.8740759982
Bq         2.6246993485    -0.6508469879     1.3128996218
Bq         2.8638699313    -0.4911530813     0.7863112735
Bq         2.5848375848    -0.6774626391     1.4006643465
Bq         2.9037316951    -0.4645374302     0.6985465488
Bq         2.5449758210    -0.7040782902     1.4884290712
Bq         2.9435934588    -0.4379217791     0.6107818241
Bq         2.7442846399    -0.5710000346     1.0496054477
Bq         2.6934164028    -0.5012227030     1.1616034228
Bq         2.7731399303    -0.4479914008     0.9860739734
Bq         2.6535546390    -0.5278383541     1.2493681475
Bq         2.8130016941    -0.4213757497     0.8983092487
Bq         2.6136928752    -0.5544540052     1.3371328723
Bq         2.8528634579    -0.3947600986     0.8105445240
Bq         2.5738311114    -0.5810696563     1.4248975970
Bq         2.8927252217    -0.3681444475     0.7227797993
Bq         2.5339693476    -0.6076853074     1.5126623217

1
2
3
4
5
6
7
8
9
10
11
12
13
14
15
16
17
18
19
20
21
22
23
24
25
26
27
28
29
30
31
32
33
34
35
36
37
38
39
40
41
42
43
44
45
46
47
48
49
50
51
52
53
54
55
56
57
58
59
60
61
62
63
64
65
66
67
68
69
70
71
72
73
74
75
76
77
78
79
80
81
82
83
84
85
86
87
88
89
90
91
92
93
94
95
96
97
98
99
100
101
102
103
104
105
106
107
108
109
110
111
112
113
114
115
116
117
118
119
120
121
122
123
124
125
126
127
128
129
130
131
132
133
134
135
136
137
138
139
140
141
142
143
144
145
146
147
148
149
150
151
152
153
154
155
156
157
158
159
160
161
162
163
164
165
166
167
168
169
170
171
172
173
174
175
176
177
178
179
180
181
182
183
184
185
186
187
188
189
190
191
192
193
194
195
196
197
198
199
200
201
202
203
204
205
206
207
208
209
210
211
212
213
214
215
216
217
218
219
220
221
222
223
224
225
226
227
228
229
230
231
232
233
234
235
236

