%nproc=8
%mem=1000MB
# rb3lyp/6-311+g** NMR geom=connectivity

Title

0 1
C    -4.0500558   -0.5771862    0.8136712
H    -5.0263804   -1.0082727    1.0024760
C    -3.9381552    0.6617804    0.2400876
H    -4.8252424    1.2338890   -0.0111295
C    -2.6768410    1.2433246    0.0057578
C    -1.4974121    0.5051527    0.2848253
C    -1.6508332   -0.7338728    0.9404026
H    -0.7713646   -1.2730967    1.2633753
C    -2.8898548   -1.2624035    1.1994307
H    -2.9683706   -2.2124563    1.7152676
C    -2.5773185    2.5963696   -0.4192930
H    -3.4870728    3.1412239   -0.6474055
C    -1.3741895    3.2147896   -0.4364030
H    -1.2997315    4.2742019   -0.6578144
C    -0.1719488    2.4994090   -0.1734588
C    -0.2043917    1.1018437    0.0192689
C     1.0513491    3.2042560   -0.0676222
H     1.0427344    4.2819499   -0.1896997
C     2.1942091    2.5487446    0.2579577
H     3.1168527    3.0912848    0.4334727
C     2.2216473    1.1336562    0.2934990
C     1.0486931    0.3945528    0.0302412
C     3.4483363    0.4614633    0.5573939
H     4.3095794    1.0606054    0.8334846
C     3.5427346   -0.8855926    0.4749463
H     4.4731467   -1.3939704    0.7038822
C     2.4490052   -1.6474447   -0.0196319
C     1.2150704   -1.0057258   -0.3013573
C     0.2531113   -1.7434440   -1.0216591
H    -0.6541356   -1.2535051   -1.3462847
C     0.4494193   -3.0628597   -1.3413779
H    -0.3083162   -3.5944309   -1.9054060
C     1.6251726   -3.7207967   -0.9552541
H     1.7670048   -4.7687404   -1.1927019
C     2.6109872   -3.0144177   -0.3183050
H     3.5525612   -3.4902813   -0.0646367
Bq         1.8578240679    -3.1736105679    -0.1422863539
Bq         1.8069558307    -3.1038332362    -0.0302883787
Bq         1.8866793583    -3.0506019340    -0.2058178281
Bq         1.7670940669    -3.1304488874     0.0574763460
Bq         1.9265411221    -3.0239862829    -0.2935825528
Bq         1.7272323031    -3.1570645385     0.1452410707
Bq         1.9664028859    -2.9973706318    -0.3813472776
Bq         1.6873705394    -3.1836801896     0.2330057954
Bq         2.0062646497    -2.9707549807    -0.4691120023
Bq         1.6475087756    -3.2102958407     0.3207705201
Bq         2.0461264134    -2.9441393296    -0.5568767270
Bq         1.8468175945    -3.0772175851    -0.1180531034
Bq         1.7959493573    -3.0074402535    -0.0060551282
Bq         1.8756728849    -2.9542089513    -0.1815845777
Bq         1.7560875936    -3.0340559046     0.0817095965
Bq         1.9155346487    -2.9275933002    -0.2693493024
Bq         1.7162258298    -3.0606715558     0.1694743212
Bq         1.9553964125    -2.9009776491    -0.3571140271
Bq         1.6763640660    -3.0872872069     0.2572390459
Bq         1.9952581763    -2.8743619980    -0.4448787518
Bq         1.6365023022    -3.1139028580     0.3450037706
Bq         2.0351199401    -2.8477463469    -0.5326434765
Bq         1.8358111211    -2.9808246024    -0.0938198530
Bq         1.7849428840    -2.9110472708     0.0181781222
Bq         1.8646664116    -2.8578159686    -0.1573513272
Bq         1.7450811202    -2.9376629219     0.1059428469
Bq         1.9045281753    -2.8312003175    -0.2451160519
Bq         1.7052193564    -2.9642785730     0.1937075716
Bq         1.9443899391    -2.8045846664    -0.3328807766
Bq         1.6653575926    -2.9908942241     0.2814722964
Bq         1.9842517029    -2.7779690153    -0.4206455013
Bq         1.6254958288    -3.0175098753     0.3692370211
Bq         2.0241134667    -2.7513533642    -0.5084102261
Bq         1.8248046478    -2.8844316197    -0.0695866025
Bq         1.7739364106    -2.8146542881     0.0424113727
Bq         1.8536599382    -2.7614229859    -0.1331180768
Bq         1.7340746468    -2.8412699392     0.1301760974
Bq         1.8935217020    -2.7348073348    -0.2208828015
Bq         1.6942128830    -2.8678855903     0.2179408221
Bq         1.9333834658    -2.7081916837    -0.3086475262
Bq         1.6543511192    -2.8945012414     0.3057055468
Bq         1.9732452295    -2.6815760326    -0.3964122509
Bq         1.6144893555    -2.9211168925     0.3934702715
Bq         2.0131069933    -2.6549603815    -0.4841769756
Bq         1.8137981744    -2.7880386370    -0.0453533520
Bq         1.7629299372    -2.7182613054     0.0666446231
Bq         1.8426534648    -2.6650300032    -0.1088848263
Bq         1.7230681734    -2.7448769565     0.1544093478
Bq         1.8825152286    -2.6384143521    -0.1966495510
Bq         1.6832064097    -2.7714926076     0.2421740726
Bq         1.9223769924    -2.6117987010    -0.2844142757
Bq         1.6433446459    -2.7981082587     0.3299387973
Bq         1.9622387562    -2.5851830499    -0.3721790004
Bq         1.6034828821    -2.8247239098     0.4177035220
Bq         2.0021005200    -2.5585673988    -0.4599437251
Bq         1.8027917010    -2.6916456543    -0.0211201016
Bq         1.7519234639    -2.6218683227     0.0908778736
Bq         1.8316469914    -2.5686370205    -0.0846515758
Bq         1.7120617001    -2.6484839738     0.1786425983
Bq         1.8715087552    -2.5420213694    -0.1724163005
Bq         1.6721999363    -2.6750996249     0.2664073230
Bq         1.9113705190    -2.5154057183    -0.2601810253
Bq         1.6323381725    -2.7017152760     0.3541720477
Bq         1.9512322828    -2.4887900672    -0.3479457500
Bq         1.5924764087    -2.7283309271     0.4419367724
Bq         1.9910940466    -2.4621744160    -0.4357104747
Bq         1.7917852276    -2.5952526716     0.0031131489
Bq         1.7409169905    -2.5254753400     0.1151111240
Bq         1.8206405181    -2.4722440378    -0.0604183254
Bq         1.7010552267    -2.5520909911     0.2028758488
Bq         1.8605022819    -2.4456283867    -0.1481830501
Bq         1.6611934629    -2.5787066422     0.2906405735
Bq         1.9003640456    -2.4190127355    -0.2359477748
Bq         1.6213316991    -2.6053222933     0.3784052982
Bq         1.9402258094    -2.3923970844    -0.3237124995
Bq         1.5814699353    -2.6319379444     0.4661700229
Bq         1.9800875732    -2.3657814333    -0.4114772242
Bq         1.7807787543    -2.4988596889     0.0273463993
Bq         1.7299105171    -2.4290823573     0.1393443745
Bq         1.8096340447    -2.3758510550    -0.0361850749
Bq         1.6900487533    -2.4556980084     0.2271090992
Bq         1.8494958085    -2.3492354039    -0.1239497996
Bq         1.6501869895    -2.4823136595     0.3148738239
Bq         1.8893575723    -2.3226197528    -0.2117145243
Bq         1.6103252258    -2.5089293106     0.4026385486
Bq         1.9292193361    -2.2960041017    -0.2994792491
Bq         1.5704634620    -2.5355449617     0.4904032734
Bq         1.9690810998    -2.2693884506    -0.3872439738
Bq         1.7697722809    -2.4024667062     0.0515796498
Bq         1.7189040437    -2.3326893746     0.1635776250
Bq         1.7986275713    -2.2794580723    -0.0119518245
Bq         1.6790422800    -2.3593050257     0.2513423497
Bq         1.8384893351    -2.2528424212    -0.0997165492
Bq         1.6391805162    -2.3859206768     0.3391070744
Bq         1.8783510989    -2.2262267701    -0.1874812739
Bq         1.5993187524    -2.4125363279     0.4268717991
Bq         1.9182128627    -2.1996111190    -0.2752459986
Bq         1.5594569886    -2.4391519790     0.5146365238
Bq         1.9580746265    -2.1729954679    -0.3630107233
Bq         1.7587658075    -2.3060737234     0.0758129002
Bq         1.7078975704    -2.2362963918     0.1878108754
Bq         1.7876210979    -2.1830650896     0.0122814260
Bq         1.6680358066    -2.2629120429     0.2755756001
Bq         1.8274828617    -2.1564494385    -0.0754832987
Bq         1.6281740428    -2.2895276941     0.3633403248
Bq         1.8673446255    -2.1298337874    -0.1632480234
Bq         1.5883122790    -2.3161433452     0.4511050496
Bq         1.9072063893    -2.1032181363    -0.2510127481
Bq         1.5484505152    -2.3427589963     0.5388697743
Bq         1.9470681531    -2.0766024852    -0.3387774729
Bq         1.7477593342    -2.2096807407     0.1000461507
Bq         1.6968910970    -2.1399034091     0.2120441259
Bq         1.7766146246    -2.0866721069     0.0365146765
Bq         1.6570293332    -2.1665190602     0.2998088506
Bq         1.8164763884    -2.0600564558    -0.0512500483
Bq         1.6171675694    -2.1931347113     0.3875735753
Bq         1.8563381522    -2.0334408047    -0.1390147730
Bq         1.5773058056    -2.2197503624     0.4753383000
Bq         1.8961999159    -2.0068251536    -0.2267794977
Bq         1.5374440419    -2.2463660136     0.5631030247
Bq         1.9360616797    -1.9802095025    -0.3145442224
Bq         1.7367528608    -2.1132877580     0.1242794012
Bq         1.6858846236    -2.0435104264     0.2362773763
Bq         1.7656081512    -1.9902791242     0.0607479269
Bq         1.6460228598    -2.0701260775     0.3240421010
Bq         1.8054699150    -1.9636634731    -0.0270167978
Bq         1.6061610961    -2.0967417286     0.4118068258
Bq         1.8453316788    -1.9370478220    -0.1147815225
Bq         1.5662993323    -2.1233573797     0.4995715505
Bq         1.8851934426    -1.9104321709    -0.2025462472
Bq         1.5264375685    -2.1499730308     0.5873362752
Bq         1.9250552064    -1.8838165198    -0.2903109719
Bq         1.7257463874    -2.0168947753     0.1485126516
Bq         1.6748781503    -1.9471174437     0.2605106268
Bq         1.7546016778    -1.8938861415     0.0849811774
Bq         1.6350163865    -1.9737330948     0.3482753515
Bq         1.7944634416    -1.8672704904    -0.0027835473
Bq         1.5951546227    -2.0003487459     0.4360400762
Bq         1.8343252054    -1.8406548393    -0.0905482721
Bq         1.5552928589    -2.0269643970     0.5238048009
Bq         1.8741869692    -1.8140391882    -0.1783129968
Bq         1.5154310951    -2.0535800481     0.6115695256
Bq         1.9140487330    -1.7874235371    -0.2660777215
Bq         1.7147399140    -1.9205017926     0.1727459021
Bq         1.6638716769    -1.8507244610     0.2847438773
Bq         1.7435952045    -1.7974931588     0.1092144278
Bq         1.6240099131    -1.8773401121     0.3725086020
Bq         1.7834569682    -1.7708775077     0.0214497031
Bq         1.5841481493    -1.9039557632     0.4602733267
Bq         1.8233187320    -1.7442618566    -0.0663150216
Bq         1.5442863855    -1.9305714143     0.5480380514
Bq         1.8631804958    -1.7176462055    -0.1540797463
Bq         1.5044246217    -1.9571870654     0.6358027761
Bq         1.9030422596    -1.6910305543    -0.2418444710
Bq         1.7037334407    -1.8241088099     0.1969791525
Bq         1.6528652035    -1.7543314783     0.3089771277
Bq         1.7325887311    -1.7011001761     0.1334476783
Bq         1.6130034397    -1.7809471294     0.3967418524
Bq         1.7724504949    -1.6744845250     0.0456829536
Bq         1.5731416759    -1.8075627805     0.4845065771
Bq         1.8123122587    -1.6478688739    -0.0420817711
Bq         1.5332799122    -1.8341784316     0.5722713018
Bq         1.8521740225    -1.6212532227    -0.1298464959
Bq         1.4934181484    -1.8607940827     0.6600360266
Bq         1.8920357862    -1.5946375716    -0.2176112206
Bq         1.6927269673    -1.7277158272     0.2212124030
Bq         1.6418587301    -1.6579384956     0.3332103782
Bq         1.7215822577    -1.6047071934     0.1576809287
Bq         1.6019969664    -1.6845541467     0.4209751029
Bq         1.7614440215    -1.5780915422     0.0699162040
Bq         1.5621352026    -1.7111697978     0.5087398276
Bq         1.8013057853    -1.5514758911    -0.0178485207
Bq         1.5222734388    -1.7377854489     0.5965045523
Bq         1.8411675491    -1.5248602400    -0.1056132454
Bq         1.4824116750    -1.7644011000     0.6842692770
Bq         1.8810293129    -1.4982445889    -0.1933779701
Bq         1.6817204939    -1.6313228445     0.2454456535
Bq         1.6308522568    -1.5615455129     0.3574436286
Bq         1.7105757843    -1.5083142106     0.1819141792
Bq         1.5909904930    -1.5881611640     0.4452083533
Bq         1.7504375481    -1.4816985595     0.0941494545
Bq         1.5511287292    -1.6147768151     0.5329730781
Bq         1.7902993119    -1.4550829084     0.0063847298
Bq         1.5112669654    -1.6413924662     0.6207378028
Bq         1.8301610757    -1.4284672573    -0.0813799949
Bq         1.4714052016    -1.6680081173     0.7085025275
Bq         1.8700228395    -1.4018516062    -0.1691447196
Bq         1.6707140206    -1.5349298617     0.2696789039
Bq         1.6198457834    -1.4651525301     0.3816768791
Bq         1.6995693110    -1.4119212279     0.2061474297
Bq         1.5799840196    -1.4917681812     0.4694416038
Bq         1.7394310748    -1.3853055768     0.1183827049
Bq         1.5401222558    -1.5183838324     0.5572063285
Bq         1.7792928385    -1.3586899257     0.0306179802
Bq         1.5002604920    -1.5449994835     0.6449710532
Bq         1.8191546023    -1.3320742746    -0.0571467445
Bq         1.4603987282    -1.5716151346     0.7327357779
Bq         1.8590163661    -1.3054586235    -0.1449114692
Bq         1.6597075472    -1.4385368790     0.2939121544
Bq         1.6088393100    -1.3687595474     0.4059101295

1
2
3
4
5
6
7
8
9
10
11
12
13
14
15
16
17
18
19
20
21
22
23
24
25
26
27
28
29
30
31
32
33
34
35
36
37
38
39
40
41
42
43
44
45
46
47
48
49
50
51
52
53
54
55
56
57
58
59
60
61
62
63
64
65
66
67
68
69
70
71
72
73
74
75
76
77
78
79
80
81
82
83
84
85
86
87
88
89
90
91
92
93
94
95
96
97
98
99
100
101
102
103
104
105
106
107
108
109
110
111
112
113
114
115
116
117
118
119
120
121
122
123
124
125
126
127
128
129
130
131
132
133
134
135
136
137
138
139
140
141
142
143
144
145
146
147
148
149
150
151
152
153
154
155
156
157
158
159
160
161
162
163
164
165
166
167
168
169
170
171
172
173
174
175
176
177
178
179
180
181
182
183
184
185
186
187
188
189
190
191
192
193
194
195
196
197
198
199
200
201
202
203
204
205
206
207
208
209
210
211
212
213
214
215
216
217
218
219
220
221
222
223
224
225
226
227
228
229
230
231
232
233
234
235
236

