%nproc=8
%mem=1000MB
# rb3lyp/6-311+g** NMR geom=connectivity

Title

0 1
C    -4.0500558   -0.5771862    0.8136712
H    -5.0263804   -1.0082727    1.0024760
C    -3.9381552    0.6617804    0.2400876
H    -4.8252424    1.2338890   -0.0111295
C    -2.6768410    1.2433246    0.0057578
C    -1.4974121    0.5051527    0.2848253
C    -1.6508332   -0.7338728    0.9404026
H    -0.7713646   -1.2730967    1.2633753
C    -2.8898548   -1.2624035    1.1994307
H    -2.9683706   -2.2124563    1.7152676
C    -2.5773185    2.5963696   -0.4192930
H    -3.4870728    3.1412239   -0.6474055
C    -1.3741895    3.2147896   -0.4364030
H    -1.2997315    4.2742019   -0.6578144
C    -0.1719488    2.4994090   -0.1734588
C    -0.2043917    1.1018437    0.0192689
C     1.0513491    3.2042560   -0.0676222
H     1.0427344    4.2819499   -0.1896997
C     2.1942091    2.5487446    0.2579577
H     3.1168527    3.0912848    0.4334727
C     2.2216473    1.1336562    0.2934990
C     1.0486931    0.3945528    0.0302412
C     3.4483363    0.4614633    0.5573939
H     4.3095794    1.0606054    0.8334846
C     3.5427346   -0.8855926    0.4749463
H     4.4731467   -1.3939704    0.7038822
C     2.4490052   -1.6474447   -0.0196319
C     1.2150704   -1.0057258   -0.3013573
C     0.2531113   -1.7434440   -1.0216591
H    -0.6541356   -1.2535051   -1.3462847
C     0.4494193   -3.0628597   -1.3413779
H    -0.3083162   -3.5944309   -1.9054060
C     1.6251726   -3.7207967   -0.9552541
H     1.7670048   -4.7687404   -1.1927019
C     2.6109872   -3.0144177   -0.3183050
H     3.5525612   -3.4902813   -0.0646367
Bq        -0.8435089286     1.3043159633     0.5599243296
Bq        -0.8463779557     1.4258051126     0.6322579683
Bq        -0.8386939930     1.3767064779     0.4385306321
Bq        -0.8502199370     1.4503544300     0.7291216364
Bq        -0.8348520117     1.3521571605     0.3416669640
Bq        -0.8540619183     1.4749037474     0.8259853045
Bq        -0.8310100303     1.3276078431     0.2448032959
Bq        -0.8579038996     1.4994530647     0.9228489726
Bq        -0.8271680490     1.3030585257     0.1479396278
Bq        -0.8617458810     1.5240023821     1.0197126406
Bq        -0.8233260677     1.2785092084     0.0510759597
Bq        -0.8425359743     1.4012557952     0.5353943002
Bq        -0.8454050014     1.5227449446     0.6077279389
Bq        -0.8377210388     1.4736463098     0.4140006027
Bq        -0.8492469828     1.5472942619     0.7045916070
Bq        -0.8338790574     1.4490969924     0.3171369346
Bq        -0.8530889641     1.5718435793     0.8014552750
Bq        -0.8300370761     1.4245476751     0.2202732665
Bq        -0.8569309454     1.5963928967     0.8983189431
Bq        -0.8261950948     1.3999983577     0.1234095984
Bq        -0.8607729267     1.6209422141     0.9951826112
Bq        -0.8223531135     1.3754490403     0.0265459303
Bq        -0.8415630201     1.4981956272     0.5108642708
Bq        -0.8444320472     1.6196847765     0.5831979094
Bq        -0.8367480846     1.5705861417     0.3894705733
Bq        -0.8482740285     1.6442340939     0.6800615775
Bq        -0.8329061032     1.5460368244     0.2926069052
Bq        -0.8521160099     1.6687834113     0.7769252456
Bq        -0.8290641219     1.5214875070     0.1957432371
Bq        -0.8559579912     1.6933327286     0.8737889137
Bq        -0.8252221406     1.4969381896     0.0988795690
Bq        -0.8597999725     1.7178820460     0.9706525818
Bq        -0.8213801592     1.4723888722     0.0020159009
Bq        -0.8405900659     1.5951354591     0.4863342413
Bq        -0.8434590930     1.7166246084     0.5586678800
Bq        -0.8357751303     1.6675259737     0.3649405438
Bq        -0.8473010743     1.7411739258     0.6555315481
Bq        -0.8319331490     1.6429766563     0.2680768757
Bq        -0.8511430556     1.7657232432     0.7523952162
Bq        -0.8280911677     1.6184273389     0.1712132076
Bq        -0.8549850370     1.7902725606     0.8492588843
Bq        -0.8242491863     1.5938780216     0.0743495396
Bq        -0.8588270183     1.8148218779     0.9461225524
Bq        -0.8204072050     1.5693287042    -0.0225141285
Bq        -0.8396171117     1.6920752911     0.4618042119
Bq        -0.8424861388     1.8135644404     0.5341378506
Bq        -0.8348021761     1.7644658056     0.3404105144
Bq        -0.8463281201     1.8381137578     0.6310015187
Bq        -0.8309601948     1.7399164882     0.2435468463
Bq        -0.8501701014     1.8626630751     0.7278651868
Bq        -0.8271182134     1.7153671709     0.1466831782
Bq        -0.8540120827     1.8872123925     0.8247288548
Bq        -0.8232762321     1.6908178535     0.0498195101
Bq        -0.8578540641     1.9117617099     0.9215925229
Bq        -0.8194342508     1.6662685361    -0.0470441580
Bq        -0.8386441574     1.7890151230     0.4372741825
Bq        -0.8415131845     1.9105042723     0.5096078212
Bq        -0.8338292219     1.8614056376     0.3158804850
Bq        -0.8453551659     1.9350535897     0.6064714892
Bq        -0.8299872405     1.8368563202     0.2190168169
Bq        -0.8491971472     1.9596029071     0.7033351573
Bq        -0.8261452592     1.8123070028     0.1221531488
Bq        -0.8530391285     1.9841522244     0.8001988254
Bq        -0.8223032779     1.7877576854     0.0252894807
Bq        -0.8568811099     2.0087015418     0.8970624935
Bq        -0.8184612966     1.7632083681    -0.0715741874
Bq        -0.8376712032     1.8859549549     0.4127441531
Bq        -0.8405402303     2.0074441043     0.4850777917
Bq        -0.8328562677     1.9583454695     0.2913504555
Bq        -0.8443822116     2.0319934216     0.5819414598
Bq        -0.8290142863     1.9337961521     0.1944867875
Bq        -0.8482241930     2.0565427390     0.6788051279
Bq        -0.8251723050     1.9092468348     0.0976231194
Bq        -0.8520661743     2.0810920564     0.7756687960
Bq        -0.8213303237     1.8846975174     0.0007594513
Bq        -0.8559081556     2.1056413738     0.8725324641
Bq        -0.8174883423     1.8601482000    -0.0961042168
Bq        -0.8366982490     1.9828947869     0.3882141236
Bq        -0.8395672761     2.1043839362     0.4605477623
Bq        -0.8318833134     2.0552853014     0.2668204261
Bq        -0.8434092574     2.1289332536     0.5574114304
Bq        -0.8280413321     2.0307359841     0.1699567580
Bq        -0.8472512387     2.1534825709     0.6542750985
Bq        -0.8241993508     2.0061866667     0.0730930899
Bq        -0.8510932201     2.1780318883     0.7511387666
Bq        -0.8203573694     1.9816373493    -0.0237705782
Bq        -0.8549352014     2.2025812057     0.8480024347
Bq        -0.8165153881     1.9570880319    -0.1206342462
Bq        -0.8357252948     2.0798346188     0.3636840942
Bq        -0.8385943219     2.2013237681     0.4360177329
Bq        -0.8309103592     2.1522251334     0.2422903967
Bq        -0.8424363032     2.2258730855     0.5328814010
Bq        -0.8270683779     2.1276758160     0.1454267286
Bq        -0.8462782845     2.2504224029     0.6297450691
Bq        -0.8232263965     2.1031264986     0.0485630605
Bq        -0.8501202658     2.2749717203     0.7266087371
Bq        -0.8193844152     2.0785771813    -0.0483006076
Bq        -0.8539622472     2.2995210376     0.8234724052
Bq        -0.8155424339     2.0540278639    -0.1451642757
Bq        -0.8347523405     2.1767744508     0.3391540648
Bq        -0.8376213676     2.2982636001     0.4114877034
Bq        -0.8299374050     2.2491649653     0.2177603673
Bq        -0.8414633490     2.3228129174     0.5083513715
Bq        -0.8260954236     2.2246156479     0.1208966992
Bq        -0.8453053303     2.3473622348     0.6052150396
Bq        -0.8222534423     2.2000663306     0.0240330311
Bq        -0.8491473116     2.3719115522     0.7020787077
Bq        -0.8184114610     2.1755170132    -0.0728306370
Bq        -0.8529892930     2.3964608696     0.7989423758
Bq        -0.8145694797     2.1509676958    -0.1696943051
Bq        -0.8337793863     2.2737142827     0.3146240354
Bq        -0.8366484134     2.3952034320     0.3869576740
Bq        -0.8289644508     2.3461047973     0.1932303378
Bq        -0.8404903947     2.4197527494     0.4838213421
Bq        -0.8251224694     2.3215554799     0.0963666697
Bq        -0.8443323761     2.4443020668     0.5806850102
Bq        -0.8212804881     2.2970061625    -0.0004969983
Bq        -0.8481743574     2.4688513841     0.6775486783
Bq        -0.8174385068     2.2724568451    -0.0973606664
Bq        -0.8520163387     2.4934007015     0.7744123464
Bq        -0.8135965254     2.2479075278    -0.1942243345
Bq        -0.8328064321     2.3706541146     0.2900940059
Bq        -0.8356754592     2.4921432640     0.3624276446
Bq        -0.8279914965     2.4430446292     0.1687003084
Bq        -0.8395174405     2.5166925813     0.4592913127
Bq        -0.8241495152     2.4184953118     0.0718366403
Bq        -0.8433594218     2.5412418987     0.5561549808
Bq        -0.8203075339     2.3939459944    -0.0250270278
Bq        -0.8472014032     2.5657912161     0.6530186489
Bq        -0.8164655525     2.3693966771    -0.1218906959
Bq        -0.8510433845     2.5903405335     0.7498823169
Bq        -0.8126235712     2.3448473597    -0.2187543640
Bq        -0.8318334779     2.4675939466     0.2655639765
Bq        -0.8347025050     2.5890830959     0.3378976152
Bq        -0.8270185423     2.5399844611     0.1441702790
Bq        -0.8385444863     2.6136324133     0.4347612833
Bq        -0.8231765610     2.5154351438     0.0473066109
Bq        -0.8423864676     2.6381817306     0.5316249513
Bq        -0.8193345796     2.4908858264    -0.0495570572
Bq        -0.8462284490     2.6627310480     0.6284886194
Bq        -0.8154925983     2.4663365090    -0.1464207253
Bq        -0.8500704303     2.6872803654     0.7253522875
Bq        -0.8116506170     2.4417871916    -0.2432843934
Bq        -0.8308605236     2.5645337785     0.2410339471
Bq        -0.8337295507     2.6860229278     0.3133675857
Bq        -0.8260455881     2.6369242931     0.1196402496
Bq        -0.8375715321     2.7105722452     0.4102312538
Bq        -0.8222036068     2.6123749757     0.0227765815
Bq        -0.8414135134     2.7351215626     0.5070949219
Bq        -0.8183616254     2.5878256583    -0.0740870866
Bq        -0.8452554947     2.7596708800     0.6039585900
Bq        -0.8145196441     2.5632763409    -0.1709507547
Bq        -0.8490974761     2.7842201973     0.7008222581
Bq        -0.8106776628     2.5387270236    -0.2678144228
Bq        -0.8298875694     2.6614736105     0.2165039176
Bq        -0.8327565965     2.7829627598     0.2888375563
Bq        -0.8250726339     2.7338641250     0.0951102201
Bq        -0.8365985778     2.8075120771     0.3857012244
Bq        -0.8212306525     2.7093148076    -0.0017534480
Bq        -0.8404405592     2.8320613945     0.4825648925
Bq        -0.8173886712     2.6847654903    -0.0986171161
Bq        -0.8442825405     2.8566107119     0.5794285606
Bq        -0.8135466899     2.6602161729    -0.1954807841
Bq        -0.8481245218     2.8811600293     0.6762922287
Bq        -0.8097047085     2.6356668555    -0.2923444522
Bq        -0.8289146152     2.7584134424     0.1919738882
Bq        -0.8317836423     2.8799025917     0.2643075269
Bq        -0.8240996796     2.8308039570     0.0705801907
Bq        -0.8356256236     2.9044519091     0.3611711950
Bq        -0.8202576983     2.8062546396    -0.0262834774
Bq        -0.8394676049     2.9290012265     0.4580348631
Bq        -0.8164157170     2.7817053222    -0.1231471455
Bq        -0.8433095863     2.9535505438     0.5548985312
Bq        -0.8125737356     2.7571560048    -0.2200108136
Bq        -0.8471515676     2.9780998612     0.6517621992
Bq        -0.8087317543     2.7326066875    -0.3168744817
Bq        -0.8279416610     2.8553532743     0.1674438588
Bq        -0.8308106881     2.9768424236     0.2397774975
Bq        -0.8231267254     2.9277437889     0.0460501613
Bq        -0.8346526694     3.0013917410     0.3366411655
Bq        -0.8192847441     2.9031944715    -0.0508135068
Bq        -0.8384946507     3.0259410584     0.4335048336
Bq        -0.8154427627     2.8786451541    -0.1476771749
Bq        -0.8423366321     3.0504903758     0.5303685017
Bq        -0.8116007814     2.8540958368    -0.2445408430
Bq        -0.8461786134     3.0750396931     0.6272321698
Bq        -0.8077588001     2.8295465194    -0.3414045111
Bq        -0.8269687067     2.9522931063     0.1429138294
Bq        -0.8298377338     3.0737822556     0.2152474680
Bq        -0.8221537712     3.0246836208     0.0215201318
Bq        -0.8336797152     3.0983315730     0.3121111361
Bq        -0.8183117899     3.0001343035    -0.0753435362
Bq        -0.8375216965     3.1228808903     0.4089748042
Bq        -0.8144698085     2.9755849861    -0.1722072043
Bq        -0.8413636778     3.1474302077     0.5058384723
Bq        -0.8106278272     2.9510356687    -0.2690708724
Bq        -0.8452056592     3.1719795251     0.6027021404
Bq        -0.8067858459     2.9264863513    -0.3659345405
Bq        -0.8259957525     3.0492329382     0.1183837999
Bq        -0.8288647796     3.1707220875     0.1907174386

1
2
3
4
5
6
7
8
9
10
11
12
13
14
15
16
17
18
19
20
21
22
23
24
25
26
27
28
29
30
31
32
33
34
35
36
37
38
39
40
41
42
43
44
45
46
47
48
49
50
51
52
53
54
55
56
57
58
59
60
61
62
63
64
65
66
67
68
69
70
71
72
73
74
75
76
77
78
79
80
81
82
83
84
85
86
87
88
89
90
91
92
93
94
95
96
97
98
99
100
101
102
103
104
105
106
107
108
109
110
111
112
113
114
115
116
117
118
119
120
121
122
123
124
125
126
127
128
129
130
131
132
133
134
135
136
137
138
139
140
141
142
143
144
145
146
147
148
149
150
151
152
153
154
155
156
157
158
159
160
161
162
163
164
165
166
167
168
169
170
171
172
173
174
175
176
177
178
179
180
181
182
183
184
185
186
187
188
189
190
191
192
193
194
195
196
197
198
199
200
201
202
203
204
205
206
207
208
209
210
211
212
213
214
215
216
217
218
219
220
221
222
223
224
225
226
227
228
229
230
231
232
233
234
235
236

