%nproc=8
%mem=1000MB
# rb3lyp/6-311+g** NMR geom=connectivity

Title

0 1
C    -4.0500558   -0.5771862    0.8136712
H    -5.0263804   -1.0082727    1.0024760
C    -3.9381552    0.6617804    0.2400876
H    -4.8252424    1.2338890   -0.0111295
C    -2.6768410    1.2433246    0.0057578
C    -1.4974121    0.5051527    0.2848253
C    -1.6508332   -0.7338728    0.9404026
H    -0.7713646   -1.2730967    1.2633753
C    -2.8898548   -1.2624035    1.1994307
H    -2.9683706   -2.2124563    1.7152676
C    -2.5773185    2.5963696   -0.4192930
H    -3.4870728    3.1412239   -0.6474055
C    -1.3741895    3.2147896   -0.4364030
H    -1.2997315    4.2742019   -0.6578144
C    -0.1719488    2.4994090   -0.1734588
C    -0.2043917    1.1018437    0.0192689
C     1.0513491    3.2042560   -0.0676222
H     1.0427344    4.2819499   -0.1896997
C     2.1942091    2.5487446    0.2579577
H     3.1168527    3.0912848    0.4334727
C     2.2216473    1.1336562    0.2934990
C     1.0486931    0.3945528    0.0302412
C     3.4483363    0.4614633    0.5573939
H     4.3095794    1.0606054    0.8334846
C     3.5427346   -0.8855926    0.4749463
H     4.4731467   -1.3939704    0.7038822
C     2.4490052   -1.6474447   -0.0196319
C     1.2150704   -1.0057258   -0.3013573
C     0.2531113   -1.7434440   -1.0216591
H    -0.6541356   -1.2535051   -1.3462847
C     0.4494193   -3.0628597   -1.3413779
H    -0.3083162   -3.5944309   -1.9054060
C     1.6251726   -3.7207967   -0.9552541
H     1.7670048   -4.7687404   -1.1927019
C     2.6109872   -3.0144177   -0.3183050
H     3.5525612   -3.4902813   -0.0646367
Bq         1.5946074088     0.1655933750     0.5635300775
Bq         1.5652374939     0.2503484100     0.6728643912
Bq         1.6165952226     0.2788037281     0.4816768430
Bq         1.5395586296     0.2361207510     0.7684581653
Bq         1.6422740869     0.2930313871     0.3860830689
Bq         1.5138797653     0.2218930920     0.8640519394
Bq         1.6679529512     0.3072590462     0.2904892948
Bq         1.4882009009     0.2076654330     0.9596457135
Bq         1.6936318155     0.3214867052     0.1948955207
Bq         1.4625220366     0.1934377739     1.0552394876
Bq         1.7193106798     0.3357143642     0.0993017466
Bq         1.5909163582     0.2645760691     0.5772706171
Bq         1.5615464434     0.3493311041     0.6866049307
Bq         1.6129041720     0.3777864221     0.4954173826
Bq         1.5358675790     0.3351034451     0.7821987048
Bq         1.6385830363     0.3920140812     0.3998236085
Bq         1.5101887147     0.3208757860     0.8777924789
Bq         1.6642619007     0.4062417402     0.3042298344
Bq         1.4845098504     0.3066481270     0.9733862530
Bq         1.6899407650     0.4204693992     0.2086360603
Bq         1.4588309861     0.2924204680     1.0689800271
Bq         1.7156196293     0.4346970583     0.1130422862
Bq         1.5872253077     0.3635587631     0.5910111567
Bq         1.5578553928     0.4483137981     0.7003454703
Bq         1.6092131215     0.4767691162     0.5091579221
Bq         1.5321765285     0.4340861391     0.7959392444
Bq         1.6348919858     0.4909967752     0.4135641480
Bq         1.5064976642     0.4198584801     0.8915330185
Bq         1.6605708501     0.5052244342     0.3179703739
Bq         1.4808187999     0.4056308210     0.9871267926
Bq         1.6862497144     0.5194520933     0.2223765998
Bq         1.4551399355     0.3914031620     1.0827205667
Bq         1.7119285788     0.5336797523     0.1267828257
Bq         1.5835342572     0.4625414571     0.6047516962
Bq         1.5541643423     0.5472964922     0.7140860099
Bq         1.6055220709     0.5757518102     0.5228984617
Bq         1.5284854780     0.5330688331     0.8096797840
Bq         1.6312009353     0.5899794692     0.4273046876
Bq         1.5028066137     0.5188411741     0.9052735581
Bq         1.6568797996     0.6042071283     0.3317109135
Bq         1.4771277493     0.5046135151     1.0008673321
Bq         1.6825586639     0.6184347873     0.2361171394
Bq         1.4514488850     0.4903858560     1.0964611062
Bq         1.7082375282     0.6326624463     0.1405233653
Bq         1.5798432066     0.5615241512     0.6184922358
Bq         1.5504732918     0.6462791862     0.7278265494
Bq         1.6018310204     0.6747345042     0.5366390012
Bq         1.5247944274     0.6320515272     0.8234203235
Bq         1.6275098847     0.6889621633     0.4410452271
Bq         1.4991155631     0.6178238681     0.9190140976
Bq         1.6531887491     0.7031898223     0.3454514530
Bq         1.4734366988     0.6035962091     1.0146078717
Bq         1.6788676134     0.7174174813     0.2498576789
Bq         1.4477578345     0.5893685501     1.1102016458
Bq         1.7045464777     0.7316451404     0.1542639049
Bq         1.5761521561     0.6605068452     0.6322327753
Bq         1.5467822412     0.7452618802     0.7415670890
Bq         1.5981399699     0.7737171983     0.5503795408
Bq         1.5211033769     0.7310342212     0.8371608631
Bq         1.6238188342     0.7879448573     0.4547857667
Bq         1.4954245126     0.7168065622     0.9327546372
Bq         1.6494976985     0.8021725163     0.3591919926
Bq         1.4697456483     0.7025789031     1.0283484113
Bq         1.6751765628     0.8164001754     0.2635982185
Bq         1.4440667839     0.6883512441     1.1239421854
Bq         1.7008554272     0.8306278344     0.1680044444
Bq         1.5724611056     0.7594895393     0.6459733149
Bq         1.5430911907     0.8442445743     0.7553076285
Bq         1.5944489193     0.8726998923     0.5641200804
Bq         1.5174123264     0.8300169152     0.8509014026
Bq         1.6201277837     0.8869275513     0.4685263063
Bq         1.4917334620     0.8157892562     0.9464951767
Bq         1.6458066480     0.9011552104     0.3729325322
Bq         1.4660545977     0.8015615972     1.0420889508
Bq         1.6714855123     0.9153828694     0.2773387581
Bq         1.4403757334     0.7873339381     1.1376827249
Bq         1.6971643766     0.9296105284     0.1817449840
Bq         1.5687700550     0.8584722333     0.6597138544
Bq         1.5394001402     0.9432272683     0.7690481681
Bq         1.5907578688     0.9716825864     0.5778606199
Bq         1.5137212758     0.9289996093     0.8646419422
Bq         1.6164367331     0.9859102454     0.4822668458
Bq         1.4880424115     0.9147719502     0.9602357163
Bq         1.6421155974     1.0001379044     0.3866730717
Bq         1.4623635472     0.9005442912     1.0558294904
Bq         1.6677944618     1.0143655634     0.2910792976
Bq         1.4366846829     0.8863166322     1.1514232645
Bq         1.6934733261     1.0285932225     0.1954855235
Bq         1.5650790045     0.9574549273     0.6734543940
Bq         1.5357090896     1.0422099623     0.7827887077
Bq         1.5870668183     1.0706652804     0.5916011595
Bq         1.5100302253     1.0279823033     0.8783824818
Bq         1.6127456826     1.0848929394     0.4960073854
Bq         1.4843513610     1.0137546443     0.9739762558
Bq         1.6384245469     1.0991205984     0.4004136113
Bq         1.4586724967     0.9995269852     1.0695700299
Bq         1.6641034112     1.1133482575     0.3048198372
Bq         1.4329936323     0.9852993262     1.1651638040
Bq         1.6897822756     1.1275759165     0.2092260631
Bq         1.5613879539     1.0564376214     0.6871949336
Bq         1.5320180391     1.1411926564     0.7965292472
Bq         1.5833757677     1.1696479744     0.6053416990
Bq         1.5063391748     1.1269649973     0.8921230213
Bq         1.6090546321     1.1838756335     0.5097479249
Bq         1.4806603104     1.1127373383     0.9877167954
Bq         1.6347334964     1.1981032925     0.4141541508
Bq         1.4549814461     1.0985096793     1.0833105695
Bq         1.6604123607     1.2123309515     0.3185603767
Bq         1.4293025818     1.0842820203     1.1789043436
Bq         1.6860912250     1.2265586105     0.2229666026
Bq         1.5576969034     1.1554203154     0.7009354731
Bq         1.5283269886     1.2401753504     0.8102697868
Bq         1.5796847172     1.2686306685     0.6190822386
Bq         1.5026481242     1.2259476914     0.9058635609
Bq         1.6053635815     1.2828583275     0.5234884645
Bq         1.4769692599     1.2117200323     1.0014573350
Bq         1.6310424458     1.2970859865     0.4278946904
Bq         1.4512903956     1.1974923733     1.0970511091
Bq         1.6567213102     1.3113136455     0.3323009163
Bq         1.4256115313     1.1832647143     1.1926448832
Bq         1.6824001745     1.3255413046     0.2367071422
Bq         1.5540058529     1.2544030094     0.7146760127
Bq         1.5246359380     1.3391580444     0.8240103263
Bq         1.5759936667     1.3676133625     0.6328227781
Bq         1.4989570737     1.3249303854     0.9196041004
Bq         1.6016725310     1.3818410215     0.5372290041
Bq         1.4732782094     1.3107027264     1.0151978745
Bq         1.6273513953     1.3960686806     0.4416352300
Bq         1.4475993450     1.2964750674     1.1107916486
Bq         1.6530302596     1.4102963396     0.3460414559
Bq         1.4219204807     1.2822474083     1.2063854227
Bq         1.6787091240     1.4245239986     0.2504476818
Bq         1.5503148023     1.3533857035     0.7284165522
Bq         1.5209448875     1.4381407385     0.8377508659
Bq         1.5723026161     1.4665960565     0.6465633177
Bq         1.4952660232     1.4239130794     0.9333446400
Bq         1.5979814804     1.4808237156     0.5509695436
Bq         1.4695871588     1.4096854204     1.0289384141
Bq         1.6236603448     1.4950513746     0.4553757695
Bq         1.4439082945     1.3954577614     1.1245321882
Bq         1.6493392091     1.5092790336     0.3597819954
Bq         1.4182294302     1.3812301024     1.2201259623
Bq         1.6750180734     1.5235066926     0.2641882213
Bq         1.5466237518     1.4523683975     0.7421570918
Bq         1.5172538369     1.5371234325     0.8514914055
Bq         1.5686115656     1.5655787506     0.6603038573
Bq         1.4915749726     1.5228957735     0.9470851795
Bq         1.5942904299     1.5798064096     0.5647100832
Bq         1.4658961083     1.5086681145     1.0426789536
Bq         1.6199692942     1.5940340686     0.4691163091
Bq         1.4402172440     1.4944404554     1.1382727277
Bq         1.6456481586     1.6082617277     0.3735225350
Bq         1.4145383797     1.4802127964     1.2338665018
Bq         1.6713270229     1.6224893867     0.2779287609
Bq         1.5429327013     1.5513510915     0.7558976314
Bq         1.5135627864     1.6361061265     0.8652319450
Bq         1.5649205151     1.6645614446     0.6740443968
Bq         1.4878839221     1.6218784675     0.9608257191
Bq         1.5905993794     1.6787891036     0.5784506227
Bq         1.4622050578     1.6076508085     1.0564194932
Bq         1.6162782437     1.6930167627     0.4828568486
Bq         1.4365261934     1.5934231495     1.1520132673
Bq         1.6419571080     1.7072444217     0.3872630745
Bq         1.4108473291     1.5791954904     1.2476070414
Bq         1.6676359723     1.7214720807     0.2916693004
Bq         1.5392416507     1.6503337856     0.7696381709
Bq         1.5098717359     1.7350888206     0.8789724846
Bq         1.5612294645     1.7635441386     0.6877849364
Bq         1.4841928716     1.7208611616     0.9745662587
Bq         1.5869083288     1.7777717977     0.5921911623
Bq         1.4585140072     1.7066335025     1.0701600328
Bq         1.6125871932     1.7919994567     0.4965973882
Bq         1.4328351429     1.6924058435     1.1657538069
Bq         1.6382660575     1.8062271157     0.4010036141
Bq         1.4071562786     1.6781781845     1.2613475810
Bq         1.6639449218     1.8204547748     0.3054098400
Bq         1.5355506002     1.7493164796     0.7833787105
Bq         1.5061806853     1.8340715146     0.8927130241
Bq         1.5575384140     1.8625268327     0.7015254759
Bq         1.4805018210     1.8198438556     0.9883067982
Bq         1.5832172783     1.8767544917     0.6059317018
Bq         1.4548229567     1.8056161966     1.0839005723
Bq         1.6088961426     1.8909821507     0.5103379278
Bq         1.4291440924     1.7913885375     1.1794943464
Bq         1.6345750070     1.9052098098     0.4147441537
Bq         1.4034652281     1.7771608785     1.2750881205
Bq         1.6602538713     1.9194374688     0.3191503796
Bq         1.5318595497     1.8482991736     0.7971192500
Bq         1.5024896348     1.9330542087     0.9064535637
Bq         1.5538473635     1.9615095267     0.7152660155
Bq         1.4768107705     1.9188265496     1.0020473378
Bq         1.5795262278     1.9757371857     0.6196722414
Bq         1.4511319062     1.9045988906     1.0976411119
Bq         1.6052050921     1.9899648448     0.5240784673
Bq         1.4254530418     1.8903712316     1.1932348860
Bq         1.6308839564     2.0041925038     0.4284846932
Bq         1.3997741775     1.8761435725     1.2888286601
Bq         1.6565628207     2.0184201628     0.3328909191
Bq         1.5281684991     1.9472818677     0.8108597896
Bq         1.4987985843     2.0320369027     0.9201941032

1
2
3
4
5
6
7
8
9
10
11
12
13
14
15
16
17
18
19
20
21
22
23
24
25
26
27
28
29
30
31
32
33
34
35
36
37
38
39
40
41
42
43
44
45
46
47
48
49
50
51
52
53
54
55
56
57
58
59
60
61
62
63
64
65
66
67
68
69
70
71
72
73
74
75
76
77
78
79
80
81
82
83
84
85
86
87
88
89
90
91
92
93
94
95
96
97
98
99
100
101
102
103
104
105
106
107
108
109
110
111
112
113
114
115
116
117
118
119
120
121
122
123
124
125
126
127
128
129
130
131
132
133
134
135
136
137
138
139
140
141
142
143
144
145
146
147
148
149
150
151
152
153
154
155
156
157
158
159
160
161
162
163
164
165
166
167
168
169
170
171
172
173
174
175
176
177
178
179
180
181
182
183
184
185
186
187
188
189
190
191
192
193
194
195
196
197
198
199
200
201
202
203
204
205
206
207
208
209
210
211
212
213
214
215
216
217
218
219
220
221
222
223
224
225
226
227
228
229
230
231
232
233
234
235
236

