%nproc=8
%mem=1000MB
# rb3lyp/6-311+g** NMR geom=connectivity

Title

0 1
C    -4.0500558   -0.5771862    0.8136712
H    -5.0263804   -1.0082727    1.0024760
C    -3.9381552    0.6617804    0.2400876
H    -4.8252424    1.2338890   -0.0111295
C    -2.6768410    1.2433246    0.0057578
C    -1.4974121    0.5051527    0.2848253
C    -1.6508332   -0.7338728    0.9404026
H    -0.7713646   -1.2730967    1.2633753
C    -2.8898548   -1.2624035    1.1994307
H    -2.9683706   -2.2124563    1.7152676
C    -2.5773185    2.5963696   -0.4192930
H    -3.4870728    3.1412239   -0.6474055
C    -1.3741895    3.2147896   -0.4364030
H    -1.2997315    4.2742019   -0.6578144
C    -0.1719488    2.4994090   -0.1734588
C    -0.2043917    1.1018437    0.0192689
C     1.0513491    3.2042560   -0.0676222
H     1.0427344    4.2819499   -0.1896997
C     2.1942091    2.5487446    0.2579577
H     3.1168527    3.0912848    0.4334727
C     2.2216473    1.1336562    0.2934990
C     1.0486931    0.3945528    0.0302412
C     3.4483363    0.4614633    0.5573939
H     4.3095794    1.0606054    0.8334846
C     3.5427346   -0.8855926    0.4749463
H     4.4731467   -1.3939704    0.7038822
C     2.4490052   -1.6474447   -0.0196319
C     1.2150704   -1.0057258   -0.3013573
C     0.2531113   -1.7434440   -1.0216591
H    -0.6541356   -1.2535051   -1.3462847
C     0.4494193   -3.0628597   -1.3413779
H    -0.3083162   -3.5944309   -1.9054060
C     1.6251726   -3.7207967   -0.9552541
H     1.7670048   -4.7687404   -1.1927019
C     2.6109872   -3.0144177   -0.3183050
H     3.5525612   -3.4902813   -0.0646367
Bq         2.6826203556    -1.7176462055     0.2181007423
Bq         2.3238644816    -1.9571870654     1.0079832648
Bq         2.7224821194    -1.6910305543     0.1303360176
Bq         2.5231733005    -1.8241088099     0.5691596412
Bq         2.4723050633    -1.7543314783     0.6811576164
Bq         2.5520285909    -1.7011001761     0.5056281669
Bq         2.4324432995    -1.7809471294     0.7689223411
Bq         2.5918903547    -1.6744845250     0.4178634422
Bq         2.3925815358    -1.8075627805     0.8566870658
Bq         2.6317521185    -1.6478688739     0.3300987175
Bq         2.3527197720    -1.8341784316     0.9444517905
Bq         2.6716138823    -1.6212532227     0.2423339928
Bq         2.3128580082    -1.8607940827     1.0322165152
Bq         2.7114756461    -1.5946375716     0.1545692681
Bq         2.5121668271    -1.7277158272     0.5933928917
Bq         2.4612985900    -1.6579384956     0.7053908668
Bq         2.5410221175    -1.6047071934     0.5298614174
Bq         2.4214368262    -1.6845541467     0.7931555915
Bq         2.5808838813    -1.5780915422     0.4420966927
Bq         2.3815750624    -1.7111697978     0.8809203162
Bq         2.6207456451    -1.5514758911     0.3543319680
Bq         2.3417132986    -1.7377854489     0.9686850410
Bq         2.6606074089    -1.5248602400     0.2665672433
Bq         2.3018515348    -1.7644011000     1.0564497657
Bq         2.7004691727    -1.4982445889     0.1788025185
Bq         2.5011603537    -1.6313228445     0.6176261421
Bq         2.4502921166    -1.5615455129     0.7296241173
Bq         2.5300156442    -1.5083142106     0.5540946679
Bq         2.4104303528    -1.5881611640     0.8173888420
Bq         2.5698774080    -1.4816985595     0.4663299431
Bq         2.3705685890    -1.6147768151     0.9051535667
Bq         2.6097391717    -1.4550829084     0.3785652184
Bq         2.3307068252    -1.6413924662     0.9929182914
Bq         2.6496009355    -1.4284672573     0.2908004937
Bq         2.2908450614    -1.6680081173     1.0806830161
Bq         2.6894626993    -1.4018516062     0.2030357690
Bq         2.4901538804    -1.5349298617     0.6418593926
Bq         2.4392856432    -1.4651525301     0.7538573677
Bq         2.5190091708    -1.4119212279     0.5783279183
Bq         2.3994238794    -1.4917681812     0.8416220925
Bq         2.5588709346    -1.3853055768     0.4905631936
Bq         2.3595621156    -1.5183838324     0.9293868172
Bq         2.5987326984    -1.3586899257     0.4027984689
Bq         2.3197003519    -1.5449994835     1.0171515419
Bq         2.6385944622    -1.3320742746     0.3150337442
Bq         2.2798385881    -1.5716151346     1.1049162666
Bq         2.6784562259    -1.3054586235     0.2272690195
Bq         2.4791474070    -1.4385368790     0.6660926430
Bq         2.4282791698    -1.3687595474     0.7780906182
Bq         2.5080026974    -1.3155282452     0.6025611688
Bq         2.3884174061    -1.3953751985     0.8658553429
Bq         2.5478644612    -1.2889125941     0.5147964441
Bq         2.3485556423    -1.4219908496     0.9536200676
Bq         2.5877262250    -1.2622969430     0.4270317193
Bq         2.3086938785    -1.4486065008     1.0413847923
Bq         2.6275879888    -1.2356812919     0.3392669946
Bq         2.2688321147    -1.4752221519     1.1291495170
Bq         2.6674497526    -1.2090656408     0.2515022699
Bq         2.4681409336    -1.3421438963     0.6903258935
Bq         2.4172726965    -1.2723665647     0.8023238687
Bq         2.4969962240    -1.2191352625     0.6267944192
Bq         2.3774109327    -1.2989822158     0.8900885934
Bq         2.5368579878    -1.1925196114     0.5390296945
Bq         2.3375491689    -1.3255978669     0.9778533181
Bq         2.5767197516    -1.1659039603     0.4512649698
Bq         2.2976874051    -1.3522135180     1.0656180428
Bq         2.6165815154    -1.1392883092     0.3635002451
Bq         2.2578256413    -1.3788291691     1.1533827675
Bq         2.6564432792    -1.1126726581     0.2757355204
Bq         2.4571344603    -1.2457509136     0.7145591439
Bq         2.4062662231    -1.1759735820     0.8265571191
Bq         2.4859897507    -1.1227422798     0.6510276697
Bq         2.3664044593    -1.2025892331     0.9143218438
Bq         2.5258515145    -1.0961266287     0.5632629450
Bq         2.3265426955    -1.2292048842     1.0020865685
Bq         2.5657132783    -1.0695109776     0.4754982203
Bq         2.2866809317    -1.2558205353     1.0898512933
Bq         2.6055750420    -1.0428953265     0.3877334956
Bq         2.2468191680    -1.2824361864     1.1776160180
Bq         2.6454368058    -1.0162796754     0.2999687708
Bq         2.4461279869    -1.1493579309     0.7387923944
Bq         2.3952597497    -1.0795805993     0.8507903696
Bq         2.4749832773    -1.0263492971     0.6752609201
Bq         2.3553979859    -1.1061962504     0.9385550943
Bq         2.5148450411    -0.9997336460     0.5874961954
Bq         2.3155362222    -1.1328119015     1.0263198190
Bq         2.5547068049    -0.9731179949     0.4997314707
Bq         2.2756744584    -1.1594275526     1.1140845437
Bq         2.5945685687    -0.9465023438     0.4119667460
Bq         2.2358126946    -1.1860432037     1.2018492684
Bq         2.6344303325    -0.9198866927     0.3242020213
Bq         2.4351215135    -1.0529649482     0.7630256449
Bq         2.3842532764    -0.9831876166     0.8750236200
Bq         2.4639768039    -0.9299563144     0.6994941706
Bq         2.3443915126    -1.0098032677     0.9627883447
Bq         2.5038385677    -0.9033406633     0.6117294459
Bq         2.3045297488    -1.0364189188     1.0505530695
Bq         2.5437003315    -0.8767250122     0.5239647212
Bq         2.2646679850    -1.0630345699     1.1383177942
Bq         2.5835620953    -0.8501093610     0.4361999965
Bq         2.2248062212    -1.0896502210     1.2260825189
Bq         2.6234238591    -0.8234937099     0.3484352718
Bq         2.4241150401    -0.9565719655     0.7872588953
Bq         2.3732468030    -0.8867946339     0.8992568705
Bq         2.4529703306    -0.8335633317     0.7237274211
Bq         2.3333850392    -0.9134102850     0.9870215952
Bq         2.4928320943    -0.8069476805     0.6359626963
Bq         2.2935232754    -0.9400259361     1.0747863199
Bq         2.5326938581    -0.7803320294     0.5481979716
Bq         2.2536615116    -0.9666415872     1.1625510446
Bq         2.5725556219    -0.7537163783     0.4604332469
Bq         2.2137997478    -0.9932572383     1.2503157693
Bq         2.6124173857    -0.7271007272     0.3726685222
Bq         2.4131085668    -0.8601789828     0.8114921458
Bq         2.3622403296    -0.7904016512     0.9234901209
Bq         2.4419638572    -0.7371703489     0.7479606715
Bq         2.3223785658    -0.8170173023     1.0112548457
Bq         2.4818256210    -0.7105546978     0.6601959468
Bq         2.2825168020    -0.8436329534     1.0990195704
Bq         2.5216873848    -0.6839390467     0.5724312221
Bq         2.2426550383    -0.8702486045     1.1867842951
Bq         2.5615491486    -0.6573233956     0.4846664974
Bq         2.2027932745    -0.8968642556     1.2745490198
Bq         2.6014109123    -0.6307077445     0.3969017727
Bq         2.4021020934    -0.7637860000     0.8357253962
Bq         2.3512338562    -0.6940086684     0.9477233714
Bq         2.4309573838    -0.6407773662     0.7721939220
Bq         2.3113720925    -0.7206243196     1.0354880961
Bq         2.4708191476    -0.6141617151     0.6844291973
Bq         2.2715103287    -0.7472399707     1.1232528208
Bq         2.5106809114    -0.5875460640     0.5966644726
Bq         2.2316485649    -0.7738556218     1.2110175455
Bq         2.5505426752    -0.5609304129     0.5088997478
Bq         2.1917868011    -0.8004712729     1.2987822703
Bq         2.5904044390    -0.5343147618     0.4211350231
Bq         2.3910956200    -0.6673930173     0.8599586467
Bq         2.3402273829    -0.5976156857     0.9719566219
Bq         2.4199509104    -0.5443843835     0.7964271724
Bq         2.3003656191    -0.6242313368     1.0597213466
Bq         2.4598126742    -0.5177687324     0.7086624477
Bq         2.2605038553    -0.6508469879     1.1474860713
Bq         2.4996744380    -0.4911530813     0.6208977230
Bq         2.2206420915    -0.6774626391     1.2352507960
Bq         2.5395362018    -0.4645374302     0.5331329983
Bq         2.1807803277    -0.7040782902     1.3230155207
Bq         2.5793979656    -0.4379217791     0.4453682736
Bq         2.3800891467    -0.5710000346     0.8841918971
Bq         2.3292209095    -0.5012227030     0.9961898723
Bq         2.4089444371    -0.4479914008     0.8206604229
Bq         2.2893591457    -0.5278383541     1.0839545970
Bq         2.4488062009    -0.4213757497     0.7328956982
Bq         2.2494973819    -0.5544540052     1.1717193217
Bq         2.4886679646    -0.3947600986     0.6451309735
Bq         2.2096356181    -0.5810696563     1.2594840465
Bq         2.5285297284    -0.3681444475     0.5573662488
Bq         2.1697738543    -0.6076853074     1.3472487712
Bq         2.5683914922    -0.3415287964     0.4696015240
Bq         2.3690826733    -0.4746070519     0.9084251476
Bq         2.3182144361    -0.4048297203     1.0204231228
Bq         2.3979379637    -0.3515984181     0.8448936734
Bq         2.2783526723    -0.4314453714     1.1081878475
Bq         2.4377997275    -0.3249827670     0.7571289486
Bq         2.2384909085    -0.4580610225     1.1959525722
Bq         2.4776614913    -0.2983671159     0.6693642239
Bq         2.1986291448    -0.4846766736     1.2837172969
Bq         2.5175232551    -0.2717514648     0.5815994992
Bq         2.1587673810    -0.5112923247     1.3714820216
Bq         2.5573850188    -0.2451358137     0.4938347745
Bq         2.3580761999    -0.3782140692     0.9326583981
Bq         2.3072079628    -0.3084367376     1.0446563732
Bq         2.3869314903    -0.2552054354     0.8691269238
Bq         2.2673461990    -0.3350523887     1.1324210979
Bq         2.4267932541    -0.2285897843     0.7813621991
Bq         2.2274844352    -0.3616680398     1.2201858227
Bq         2.4666550179    -0.2019741332     0.6935974744
Bq         2.1876226714    -0.3882836909     1.3079505474
Bq         2.5065167817    -0.1753584821     0.6058327497
Bq         2.1477609076    -0.4148993420     1.3957152721
Bq         2.5463785455    -0.1487428310     0.5180680250
Bq         2.3470697265    -0.2818210865     0.9568916485
Bq         2.2962014894    -0.2120437549     1.0688896237
Bq         2.3759250170    -0.1588124527     0.8933601743
Bq         2.2563397256    -0.2386594060     1.1566543484
Bq         2.4157867807    -0.1321968016     0.8055954496
Bq         2.2164779618    -0.2652750571     1.2444190731
Bq         2.4556485445    -0.1055811505     0.7178307248
Bq         2.1766161980    -0.2918907082     1.3321837978
Bq         2.4955103083    -0.0789654993     0.6300660001
Bq         2.1367544342    -0.3185063593     1.4199485225
Bq         2.5353720721    -0.0523498482     0.5423012754
Bq         2.3360632532    -0.1854281038     0.9811248990
Bq         2.2851950160    -0.1156507722     1.0931228742
Bq         2.3649185436    -0.0624194700     0.9175934247
Bq         2.2453332522    -0.1422664233     1.1808875989
Bq         2.4047803074    -0.0358038189     0.8298287000
Bq         2.2054714884    -0.1688820744     1.2686523236
Bq         2.4446420712    -0.0091881677     0.7420639753
Bq         2.1656097246    -0.1954977255     1.3564170483
Bq         2.4845038349     0.0174274834     0.6542992506
Bq         2.1257479609    -0.2221133766     1.4441817730

1
2
3
4
5
6
7
8
9
10
11
12
13
14
15
16
17
18
19
20
21
22
23
24
25
26
27
28
29
30
31
32
33
34
35
36
37
38
39
40
41
42
43
44
45
46
47
48
49
50
51
52
53
54
55
56
57
58
59
60
61
62
63
64
65
66
67
68
69
70
71
72
73
74
75
76
77
78
79
80
81
82
83
84
85
86
87
88
89
90
91
92
93
94
95
96
97
98
99
100
101
102
103
104
105
106
107
108
109
110
111
112
113
114
115
116
117
118
119
120
121
122
123
124
125
126
127
128
129
130
131
132
133
134
135
136
137
138
139
140
141
142
143
144
145
146
147
148
149
150
151
152
153
154
155
156
157
158
159
160
161
162
163
164
165
166
167
168
169
170
171
172
173
174
175
176
177
178
179
180
181
182
183
184
185
186
187
188
189
190
191
192
193
194
195
196
197
198
199
200
201
202
203
204
205
206
207
208
209
210
211
212
213
214
215
216
217
218
219
220
221
222
223
224
225
226
227
228
229
230
231
232
233
234
235
236

