%nproc=8
%mem=1000MB
# rb3lyp/6-311+g** NMR geom=connectivity

Title

0 1
C    -4.0500558   -0.5771862    0.8136712
H    -5.0263804   -1.0082727    1.0024760
C    -3.9381552    0.6617804    0.2400876
H    -4.8252424    1.2338890   -0.0111295
C    -2.6768410    1.2433246    0.0057578
C    -1.4974121    0.5051527    0.2848253
C    -1.6508332   -0.7338728    0.9404026
H    -0.7713646   -1.2730967    1.2633753
C    -2.8898548   -1.2624035    1.1994307
H    -2.9683706   -2.2124563    1.7152676
C    -2.5773185    2.5963696   -0.4192930
H    -3.4870728    3.1412239   -0.6474055
C    -1.3741895    3.2147896   -0.4364030
H    -1.2997315    4.2742019   -0.6578144
C    -0.1719488    2.4994090   -0.1734588
C    -0.2043917    1.1018437    0.0192689
C     1.0513491    3.2042560   -0.0676222
H     1.0427344    4.2819499   -0.1896997
C     2.1942091    2.5487446    0.2579577
H     3.1168527    3.0912848    0.4334727
C     2.2216473    1.1336562    0.2934990
C     1.0486931    0.3945528    0.0302412
C     3.4483363    0.4614633    0.5573939
H     4.3095794    1.0606054    0.8334846
C     3.5427346   -0.8855926    0.4749463
H     4.4731467   -1.3939704    0.7038822
C     2.4490052   -1.6474447   -0.0196319
C     1.2150704   -1.0057258   -0.3013573
C     0.2531113   -1.7434440   -1.0216591
H    -0.6541356   -1.2535051   -1.3462847
C     0.4494193   -3.0628597   -1.3413779
H    -0.3083162   -3.5944309   -1.9054060
C     1.6251726   -3.7207967   -0.9552541
H     1.7670048   -4.7687404   -1.1927019
C     2.6109872   -3.0144177   -0.3183050
H     3.5525612   -3.4902813   -0.0646367
Bq        -3.4270711851     1.1091788619     0.0939548262
Bq        -3.4616490171     1.3301227182     0.9657278390
Bq        -3.4232292038     1.0846295445    -0.0029088419
Bq        -3.4424391104     1.2073761314     0.4814094986
Bq        -3.4453081375     1.3288652807     0.5537431372
Bq        -3.4376241749     1.2797666459     0.3600158011
Bq        -3.4491501189     1.3534145981     0.6506068053
Bq        -3.4337821936     1.2552173286     0.2631521330
Bq        -3.4529921002     1.3779639154     0.7474704734
Bq        -3.4299402122     1.2306680112     0.1662884649
Bq        -3.4568340815     1.4025132328     0.8443341415
Bq        -3.4260982309     1.2061186938     0.0694247968
Bq        -3.4606760629     1.4270625502     0.9411978096
Bq        -3.4222562496     1.1815693764    -0.0274388713
Bq        -3.4414661562     1.3043159633     0.4568794692
Bq        -3.4443351833     1.4258051126     0.5292131078
Bq        -3.4366512207     1.3767064779     0.3354857716
Bq        -3.4481771646     1.4503544300     0.6260767759
Bq        -3.4328092393     1.3521571605     0.2386221036
Bq        -3.4520191460     1.4749037474     0.7229404440
Bq        -3.4289672580     1.3276078431     0.1417584355
Bq        -3.4558611273     1.4994530647     0.8198041121
Bq        -3.4251252767     1.3030585257     0.0448947674
Bq        -3.4597031086     1.5240023821     0.9166677802
Bq        -3.4212832953     1.2785092084    -0.0519689007
Bq        -3.4404932020     1.4012557952     0.4323494397
Bq        -3.4433622291     1.5227449446     0.5046830784
Bq        -3.4356782664     1.4736463098     0.3109557422
Bq        -3.4472042104     1.5472942619     0.6015467465
Bq        -3.4318362851     1.4490969924     0.2140920741
Bq        -3.4510461917     1.5718435793     0.6984104146
Bq        -3.4279943038     1.4245476751     0.1172284060
Bq        -3.4548881731     1.5963928967     0.7952740827
Bq        -3.4241523224     1.3999983577     0.0203647379
Bq        -3.4587301544     1.6209422141     0.8921377508
Bq        -3.4203103411     1.3754490403    -0.0764989301
Bq        -3.4395202478     1.4981956272     0.4078194103
Bq        -3.4423892749     1.6196847765     0.4801530490
Bq        -3.4347053122     1.5705861417     0.2864257128
Bq        -3.4462312562     1.6442340939     0.5770167171
Bq        -3.4308633309     1.5460368244     0.1895620447
Bq        -3.4500732375     1.6687834113     0.6738803851
Bq        -3.4270213495     1.5214875070     0.0926983766
Bq        -3.4539152189     1.6933327286     0.7707440532
Bq        -3.4231793682     1.4969381896    -0.0041652915
Bq        -3.4577572002     1.7178820460     0.8676077213
Bq        -3.4193373869     1.4723888722    -0.1010289596
Bq        -3.4385472935     1.5951354591     0.3832893809
Bq        -3.4414163206     1.7166246084     0.4556230195
Bq        -3.4337323580     1.6675259737     0.2618956834
Bq        -3.4452583020     1.7411739258     0.5524866876
Bq        -3.4298903767     1.6429766563     0.1650320153
Bq        -3.4491002833     1.7657232432     0.6493503557
Bq        -3.4260483953     1.6184273389     0.0681683472
Bq        -3.4529422646     1.7902725606     0.7462140238
Bq        -3.4222064140     1.5938780216    -0.0286953209
Bq        -3.4567842460     1.8148218779     0.8430776919
Bq        -3.4183644327     1.5693287042    -0.1255589890
Bq        -3.4375743393     1.6920752911     0.3587593514
Bq        -3.4404433664     1.8135644404     0.4310929901
Bq        -3.4327594038     1.7644658056     0.2373656539
Bq        -3.4442853477     1.8381137578     0.5279566582
Bq        -3.4289174224     1.7399164882     0.1405019858
Bq        -3.4481273291     1.8626630751     0.6248203263
Bq        -3.4250754411     1.7153671709     0.0436383178
Bq        -3.4519693104     1.8872123925     0.7216839944
Bq        -3.4212334598     1.6908178535    -0.0532253503
Bq        -3.4558112917     1.9117617099     0.8185476625
Bq        -3.4173914784     1.6662685361    -0.1500890184
Bq        -3.4366013851     1.7890151230     0.3342293220
Bq        -3.4394704122     1.9105042723     0.4065629607
Bq        -3.4317864495     1.8614056376     0.2128356245
Bq        -3.4433123935     1.9350535897     0.5034266288
Bq        -3.4279444682     1.8368563202     0.1159719564
Bq        -3.4471543748     1.9596029071     0.6002902969
Bq        -3.4241024869     1.8123070028     0.0191082883
Bq        -3.4509963562     1.9841522244     0.6971539650
Bq        -3.4202605055     1.7877576854    -0.0777553798
Bq        -3.4548383375     2.0087015418     0.7940176330
Bq        -3.4164185242     1.7632083681    -0.1746190479
Bq        -3.4356284309     1.8859549549     0.3096992926
Bq        -3.4384974580     2.0074441043     0.3820329313
Bq        -3.4308134953     1.9583454695     0.1883055951
Bq        -3.4423394393     2.0319934216     0.4788965993
Bq        -3.4269715140     1.9337961521     0.0914419270
Bq        -3.4461814206     2.0565427390     0.5757602674
Bq        -3.4231295327     1.9092468348    -0.0054217411
Bq        -3.4500234020     2.0810920564     0.6726239355
Bq        -3.4192875513     1.8846975174    -0.1022854092
Bq        -3.4538653833     2.1056413738     0.7694876036
Bq        -3.4154455700     1.8601482000    -0.1991490773
Bq        -3.4346554766     1.9828947869     0.2851692632
Bq        -3.4375245037     2.1043839362     0.3575029018
Bq        -3.4298405411     2.0552853014     0.1637755657
Bq        -3.4413664851     2.1289332536     0.4543665699
Bq        -3.4259985598     2.0307359841     0.0669118976
Bq        -3.4452084664     2.1534825709     0.5512302380
Bq        -3.4221565784     2.0061866667    -0.0299517705
Bq        -3.4490504477     2.1780318883     0.6480939061
Bq        -3.4183145971     1.9816373493    -0.1268154386
Bq        -3.4528924291     2.2025812057     0.7449575742
Bq        -3.4144726158     1.9570880319    -0.2236791067
Bq        -3.4336825224     2.0798346188     0.2606392337
Bq        -3.4365515495     2.2013237681     0.3329728724
Bq        -3.4288675869     2.1522251334     0.1392455362
Bq        -3.4403935308     2.2258730855     0.4298365405
Bq        -3.4250256055     2.1276758160     0.0423818681
Bq        -3.4442355122     2.2504224029     0.5267002086
Bq        -3.4211836242     2.1031264986    -0.0544818000
Bq        -3.4480774935     2.2749717203     0.6235638767
Bq        -3.4173416429     2.0785771813    -0.1513454680
Bq        -3.4519194748     2.2995210376     0.7204275448
Bq        -3.4134996615     2.0540278639    -0.2482091361
Bq        -3.4327095682     2.1767744508     0.2361092043
Bq        -3.4355785953     2.2982636001     0.3084428430
Bq        -3.4278946326     2.2491649653     0.1147155068
Bq        -3.4394205766     2.3228129174     0.4053065111
Bq        -3.4240526513     2.2246156479     0.0178518387
Bq        -3.4432625580     2.3473622348     0.5021701792
Bq        -3.4202106700     2.2000663306    -0.0790118294
Bq        -3.4471045393     2.3719115522     0.5990338472
Bq        -3.4163686886     2.1755170132    -0.1758754975
Bq        -3.4509465206     2.3964608696     0.6958975153
Bq        -3.4125267073     2.1509676958    -0.2727391656
Bq        -3.4317366140     2.2737142827     0.2115791749
Bq        -3.4346056411     2.3952034320     0.2839128135
Bq        -3.4269216784     2.3461047973     0.0901854774
Bq        -3.4384476224     2.4197527494     0.3807764816
Bq        -3.4230796971     2.3215554799    -0.0066781907
Bq        -3.4422896037     2.4443020668     0.4776401497
Bq        -3.4192377158     2.2970061625    -0.1035418588
Bq        -3.4461315851     2.4688513841     0.5745038178
Bq        -3.4153957344     2.2724568451    -0.2004055269
Bq        -3.4499735664     2.4934007015     0.6713674859
Bq        -3.4115537531     2.2479075278    -0.2972691950
Bq        -3.4307636597     2.3706541146     0.1870491455
Bq        -3.4336326868     2.4921432640     0.2593827841
Bq        -3.4259487242     2.4430446292     0.0656554479
Bq        -3.4374746682     2.5166925813     0.3562464522
Bq        -3.4221067429     2.4184953118    -0.0312082201
Bq        -3.4413166495     2.5412418987     0.4531101203
Bq        -3.4182647615     2.3939459944    -0.1280718882
Bq        -3.4451586308     2.5657912161     0.5499737884
Bq        -3.4144227802     2.3693966771    -0.2249355563
Bq        -3.4490006122     2.5903405335     0.6468374565
Bq        -3.4105807989     2.3448473597    -0.3217992244
Bq        -3.4297907055     2.4675939466     0.1625191160
Bq        -3.4326597326     2.5890830959     0.2348527547
Bq        -3.4249757700     2.5399844611     0.0411254185
Bq        -3.4365017139     2.6136324133     0.3317164228
Bq        -3.4211337886     2.5154351438    -0.0557382496
Bq        -3.4403436953     2.6381817306     0.4285800909
Bq        -3.4172918073     2.4908858264    -0.1526019177
Bq        -3.4441856766     2.6627310480     0.5254437590
Bq        -3.4134498260     2.4663365090    -0.2494655858
Bq        -3.4480276579     2.6872803654     0.6223074271
Bq        -3.4096078446     2.4417871916    -0.3463292538
Bq        -3.4288177513     2.5645337785     0.1379890866
Bq        -3.4316867784     2.6860229278     0.2103227253
Bq        -3.4240028157     2.6369242931     0.0165953891
Bq        -3.4355287597     2.7105722452     0.3071863934
Bq        -3.4201608344     2.6123749757    -0.0802682790
Bq        -3.4393707411     2.7351215626     0.4040500614
Bq        -3.4163188531     2.5878256583    -0.1771319471
Bq        -3.4432127224     2.7596708800     0.5009137295
Bq        -3.4124768718     2.5632763409    -0.2739956152
Bq        -3.4470547037     2.7842201973     0.5977773976
Bq        -3.4086348904     2.5387270236    -0.3708592833
Bq        -3.4278447971     2.6614736105     0.1134590572
Bq        -3.4307138242     2.7829627598     0.1857926958
Bq        -3.4230298615     2.7338641250    -0.0079346403
Bq        -3.4345558055     2.8075120771     0.2826563639
Bq        -3.4191878802     2.7093148076    -0.1047983084
Bq        -3.4383977868     2.8320613945     0.3795200320
Bq        -3.4153458989     2.6847654903    -0.2016619765
Bq        -3.4422397682     2.8566107119     0.4763837001
Bq        -3.4115039175     2.6602161729    -0.2985256446
Bq        -3.4460817495     2.8811600293     0.5732473682
Bq        -3.4076619362     2.6356668555    -0.3953893127
Bq        -3.4268718428     2.7584134424     0.0889290278
Bq        -3.4297408699     2.8799025917     0.1612626664
Bq        -3.4220569073     2.8308039570    -0.0324646698
Bq        -3.4335828513     2.9044519091     0.2581263345
Bq        -3.4182149260     2.8062546396    -0.1293283379
Bq        -3.4374248326     2.9290012265     0.3549900026
Bq        -3.4143729446     2.7817053222    -0.2261920059
Bq        -3.4412668139     2.9535505438     0.4518536707
Bq        -3.4105309633     2.7571560048    -0.3230556740
Bq        -3.4451087953     2.9780998612     0.5487173388
Bq        -3.4066889820     2.7326066875    -0.4199193421
Bq        -3.4258988886     2.8553532743     0.0643989983
Bq        -3.4287679157     2.9768424236     0.1367326370
Bq        -3.4210839531     2.9277437889    -0.0569946992
Bq        -3.4326098971     3.0013917410     0.2335963051
Bq        -3.4172419717     2.9031944715    -0.1538583673
Bq        -3.4364518784     3.0259410584     0.3304599732
Bq        -3.4133999904     2.8786451541    -0.2507220354
Bq        -3.4402938597     3.0504903758     0.4273236413
Bq        -3.4095580091     2.8540958368    -0.3475857035
Bq        -3.4441358410     3.0750396931     0.5241873093

1
2
3
4
5
6
7
8
9
10
11
12
13
14
15
16
17
18
19
20
21
22
23
24
25
26
27
28
29
30
31
32
33
34
35
36
37
38
39
40
41
42
43
44
45
46
47
48
49
50
51
52
53
54
55
56
57
58
59
60
61
62
63
64
65
66
67
68
69
70
71
72
73
74
75
76
77
78
79
80
81
82
83
84
85
86
87
88
89
90
91
92
93
94
95
96
97
98
99
100
101
102
103
104
105
106
107
108
109
110
111
112
113
114
115
116
117
118
119
120
121
122
123
124
125
126
127
128
129
130
131
132
133
134
135
136
137
138
139
140
141
142
143
144
145
146
147
148
149
150
151
152
153
154
155
156
157
158
159
160
161
162
163
164
165
166
167
168
169
170
171
172
173
174
175
176
177
178
179
180
181
182
183
184
185
186
187
188
189
190
191
192
193
194
195
196
197
198
199
200
201
202
203
204
205
206
207
208
209
210
211
212
213
214
215
216
217
218
219
220
221
222
223
224
225
226
227
228
229
230
231
232
233
234
235
236

