%nproc=8
%mem=1000MB
# rb3lyp/6-311+g** NMR geom=connectivity

Title

0 1
C    -4.0500558   -0.5771862    0.8136712
H    -5.0263804   -1.0082727    1.0024760
C    -3.9381552    0.6617804    0.2400876
H    -4.8252424    1.2338890   -0.0111295
C    -2.6768410    1.2433246    0.0057578
C    -1.4974121    0.5051527    0.2848253
C    -1.6508332   -0.7338728    0.9404026
H    -0.7713646   -1.2730967    1.2633753
C    -2.8898548   -1.2624035    1.1994307
H    -2.9683706   -2.2124563    1.7152676
C    -2.5773185    2.5963696   -0.4192930
H    -3.4870728    3.1412239   -0.6474055
C    -1.3741895    3.2147896   -0.4364030
H    -1.2997315    4.2742019   -0.6578144
C    -0.1719488    2.4994090   -0.1734588
C    -0.2043917    1.1018437    0.0192689
C     1.0513491    3.2042560   -0.0676222
H     1.0427344    4.2819499   -0.1896997
C     2.1942091    2.5487446    0.2579577
H     3.1168527    3.0912848    0.4334727
C     2.2216473    1.1336562    0.2934990
C     1.0486931    0.3945528    0.0302412
C     3.4483363    0.4614633    0.5573939
H     4.3095794    1.0606054    0.8334846
C     3.5427346   -0.8855926    0.4749463
H     4.4731467   -1.3939704    0.7038822
C     2.4490052   -1.6474447   -0.0196319
C     1.2150704   -1.0057258   -0.3013573
C     0.2531113   -1.7434440   -1.0216591
H    -0.6541356   -1.2535051   -1.3462847
C     0.4494193   -3.0628597   -1.3413779
H    -0.3083162   -3.5944309   -1.9054060
C     1.6251726   -3.7207967   -0.9552541
H     1.7670048   -4.7687404   -1.1927019
C     2.6109872   -3.0144177   -0.3183050
H     3.5525612   -3.4902813   -0.0646367
Bq        -2.2183342964     1.6662685361    -0.1025298521
Bq        -2.2375442031     1.7890151230     0.3817884884
Bq        -2.2404132302     1.9105042723     0.4541221271
Bq        -2.2327292675     1.8614056376     0.2603947909
Bq        -2.2442552115     1.9350535897     0.5509857951
Bq        -2.2288872862     1.8368563202     0.1635311228
Bq        -2.2480971929     1.9596029071     0.6478494632
Bq        -2.2250453049     1.8123070028     0.0666674547
Bq        -2.2519391742     1.9841522244     0.7447131313
Bq        -2.2212033236     1.7877576854    -0.0301962134
Bq        -2.2557811555     2.0087015418     0.8415767994
Bq        -2.2173613422     1.7632083681    -0.1270598815
Bq        -2.2365712489     1.8859549549     0.3572584590
Bq        -2.2394402760     2.0074441043     0.4295920976
Bq        -2.2317563133     1.9583454695     0.2358647614
Bq        -2.2432822573     2.0319934216     0.5264557657
Bq        -2.2279143320     1.9337961521     0.1390010934
Bq        -2.2471242386     2.0565427390     0.6233194338
Bq        -2.2240723507     1.9092468348     0.0421374253
Bq        -2.2509662200     2.0810920564     0.7201831019
Bq        -2.2202303693     1.8846975174    -0.0547262428
Bq        -2.2548082013     2.1056413738     0.8170467700
Bq        -2.2163883880     1.8601482000    -0.1515899109
Bq        -2.2355982946     1.9828947869     0.3327284295
Bq        -2.2384673217     2.1043839362     0.4050620682
Bq        -2.2307833591     2.0552853014     0.2113347320
Bq        -2.2423093031     2.1289332536     0.5019257363
Bq        -2.2269413778     2.0307359841     0.1144710639
Bq        -2.2461512844     2.1534825709     0.5987894044
Bq        -2.2230993964     2.0061866667     0.0176073958
Bq        -2.2499932657     2.1780318883     0.6956530725
Bq        -2.2192574151     1.9816373493    -0.0792562722
Bq        -2.2538352471     2.2025812057     0.7925167406
Bq        -2.2154154338     1.9570880319    -0.1761199403
Bq        -2.2346253404     2.0798346188     0.3081984001
Bq        -2.2374943675     2.2013237681     0.3805320388
Bq        -2.2298104049     2.1522251334     0.1868047026
Bq        -2.2413363489     2.2258730855     0.4773957069
Bq        -2.2259684235     2.1276758160     0.0899410345
Bq        -2.2451783302     2.2504224029     0.5742593750
Bq        -2.2221264422     2.1031264986    -0.0069226336
Bq        -2.2490203115     2.2749717203     0.6711230430
Bq        -2.2182844609     2.0785771813    -0.1037863017
Bq        -2.2528622928     2.2995210376     0.7679867111
Bq        -2.2144424795     2.0540278639    -0.2006499698
Bq        -2.2336523862     2.1767744508     0.2836683707
Bq        -2.2365214133     2.2982636001     0.3560020093
Bq        -2.2288374506     2.2491649653     0.1622746732
Bq        -2.2403633946     2.3228129174     0.4528656774
Bq        -2.2249954693     2.2246156479     0.0654110051
Bq        -2.2442053760     2.3473622348     0.5497293455
Bq        -2.2211534880     2.2000663306    -0.0314526630
Bq        -2.2480473573     2.3719115522     0.6465930136
Bq        -2.2173115067     2.1755170132    -0.1283163311
Bq        -2.2518893386     2.3964608696     0.7434566817
Bq        -2.2134695253     2.1509676958    -0.2251799992
Bq        -2.2326794320     2.2737142827     0.2591383413
Bq        -2.2355484591     2.3952034320     0.3314719799
Bq        -2.2278644964     2.3461047973     0.1377446437
Bq        -2.2393904404     2.4197527494     0.4283356480
Bq        -2.2240225151     2.3215554799     0.0408809756
Bq        -2.2432324217     2.4443020668     0.5251993161
Bq        -2.2201805338     2.2970061625    -0.0559826924
Bq        -2.2470744031     2.4688513841     0.6220629842
Bq        -2.2163385524     2.2724568451    -0.1528463605
Bq        -2.2509163844     2.4934007015     0.7189266523
Bq        -2.2124965711     2.2479075278    -0.2497100286
Bq        -2.2317064777     2.3706541146     0.2346083118
Bq        -2.2345755048     2.4921432640     0.3069419505
Bq        -2.2268915422     2.4430446292     0.1132146143
Bq        -2.2384174862     2.5166925813     0.4038056186
Bq        -2.2230495609     2.4184953118     0.0163509462
Bq        -2.2422594675     2.5412418987     0.5006692867
Bq        -2.2192075795     2.3939459944    -0.0805127219
Bq        -2.2461014488     2.5657912161     0.5975329548
Bq        -2.2153655982     2.3693966771    -0.1773763900
Bq        -2.2499434302     2.5903405335     0.6943966229
Bq        -2.2115236169     2.3448473597    -0.2742400580
Bq        -2.2307335235     2.4675939466     0.2100782824
Bq        -2.2336025506     2.5890830959     0.2824119211
Bq        -2.2259185880     2.5399844611     0.0886845849
Bq        -2.2374445320     2.6136324133     0.3792755892
Bq        -2.2220766066     2.5154351438    -0.0081790832
Bq        -2.2412865133     2.6381817306     0.4761392572
Bq        -2.2182346253     2.4908858264    -0.1050427513
Bq        -2.2451284946     2.6627310480     0.5730029253
Bq        -2.2143926440     2.4663365090    -0.2019064194
Bq        -2.2489704759     2.6872803654     0.6698665934
Bq        -2.2105506627     2.4417871916    -0.2987700875
Bq        -2.2297605693     2.5645337785     0.1855482530
Bq        -2.2326295964     2.6860229278     0.2578818916
Bq        -2.2249456337     2.6369242931     0.0641545555
Bq        -2.2364715777     2.7105722452     0.3547455597
Bq        -2.2211036524     2.6123749757    -0.0327091126
Bq        -2.2403135591     2.7351215626     0.4516092278
Bq        -2.2172616711     2.5878256583    -0.1295727807
Bq        -2.2441555404     2.7596708800     0.5484728959
Bq        -2.2134196898     2.5632763409    -0.2264364488
Bq        -2.2479975217     2.7842201973     0.6453365640
Bq        -2.2095777084     2.5387270236    -0.3233001169
Bq        -2.2287876151     2.6614736105     0.1610182235
Bq        -2.2316566422     2.7829627598     0.2333518622
Bq        -2.2239726795     2.7338641250     0.0396245260
Bq        -2.2354986235     2.8075120771     0.3302155303
Bq        -2.2201306982     2.7093148076    -0.0572391421
Bq        -2.2393406048     2.8320613945     0.4270791984
Bq        -2.2162887169     2.6847654903    -0.1541028101
Bq        -2.2431825862     2.8566107119     0.5239428665
Bq        -2.2124467355     2.6602161729    -0.2509664782
Bq        -2.2470245675     2.8811600293     0.6208065346
Bq        -2.2086047542     2.6356668555    -0.3478301463
Bq        -2.2278146608     2.7584134424     0.1364881941
Bq        -2.2306836880     2.8799025917     0.2088218328
Bq        -2.2229997253     2.8308039570     0.0150944966
Bq        -2.2345256693     2.9044519091     0.3056855009
Bq        -2.2191577440     2.8062546396    -0.0817691715
Bq        -2.2383676506     2.9290012265     0.4025491690
Bq        -2.2153157626     2.7817053222    -0.1786328396
Bq        -2.2422096319     2.9535505438     0.4994128371
Bq        -2.2114737813     2.7571560048    -0.2754965077
Bq        -2.2460516133     2.9780998612     0.5962765051
Bq        -2.2076318000     2.7326066875    -0.3723601758
Bq        -2.2268417066     2.8553532743     0.1119581647
Bq        -2.2297107337     2.9768424236     0.1842918034
Bq        -2.2220267711     2.9277437889    -0.0094355328
Bq        -2.2335527151     3.0013917410     0.2811554714
Bq        -2.2181847897     2.9031944715    -0.1062992009
Bq        -2.2373946964     3.0259410584     0.3780191395
Bq        -2.2143428084     2.8786451541    -0.2031628690
Bq        -2.2412366777     3.0504903758     0.4748828076
Bq        -2.2105008271     2.8540958368    -0.3000265371
Bq        -2.2450786590     3.0750396931     0.5717464757
Bq        -2.2066588458     2.8295465194    -0.3968902052
Bq        -2.2258687524     2.9522931063     0.0874281353
Bq        -2.2287377795     3.0737822556     0.1597617739
Bq        -2.2210538168     3.0246836208    -0.0339655623
Bq        -2.2325797608     3.0983315730     0.2566254420
Bq        -2.2172118355     3.0001343035    -0.1308292303
Bq        -2.2364217422     3.1228808903     0.3534891101
Bq        -2.2133698542     2.9755849861    -0.2276928984
Bq        -2.2402637235     3.1474302077     0.4503527782
Bq        -2.2095278729     2.9510356687    -0.3245565665
Bq        -2.2441057048     3.1719795251     0.5472164463
Bq        -2.2056858915     2.9264863513    -0.4214202346
Bq        -2.2248957982     3.0492329382     0.0628981058
Bq        -2.2277648253     3.1707220875     0.1352317445
Bq        -2.2200808626     3.1216234528    -0.0584955917
Bq        -2.2316068066     3.1952714049     0.2320954126
Bq        -2.2162388813     3.0970741354    -0.1553592598
Bq        -2.2354487879     3.2198207223     0.3289590807
Bq        -2.2123969000     3.0725248180    -0.2522229279
Bq        -2.2392907693     3.2443700397     0.4258227488
Bq        -2.2085549186     3.0479755006    -0.3490865959
Bq        -2.2431327506     3.2689193570     0.5226864169
Bq        -2.2047129373     3.0234261833    -0.4459502640
Bq        -2.2239228439     3.1461727701     0.0383680764
Bq        -2.2267918711     3.2676619195     0.1107017151
Bq        -2.2191079084     3.2185632847    -0.0830256211
Bq        -2.2306338524     3.2922112368     0.2075653832
Bq        -2.2152659271     3.1940139673    -0.1798892892
Bq        -2.2344758337     3.3167605542     0.3044290513
Bq        -2.2114239457     3.1694646500    -0.2767529573
Bq        -2.2383178150     3.3413098716     0.4012927193
Bq        -2.2075819644     3.1449153326    -0.3736166254
Bq        -2.2421597964     3.3658591890     0.4981563874
Bq        -2.2037399831     3.1203660152    -0.4704802935
Bq        -2.2229498897     3.2431126021     0.0138380470
Bq        -2.2258189168     3.3646017514     0.0861716856
Bq        -2.2181349542     3.3155031167    -0.1075556505
Bq        -2.2296608982     3.3891510688     0.1830353537
Bq        -2.2142929728     3.2909537993    -0.2044193186
Bq        -2.2335028795     3.4137003862     0.2798990218
Bq        -2.2104509915     3.2664044819    -0.3012829867
Bq        -2.2373448608     3.4382497035     0.3767626899
Bq        -2.2066090102     3.2418551645    -0.3981466548
Bq        -2.2411868421     3.4627990209     0.4736263580
Bq        -2.2027670289     3.2173058471    -0.4950103229
Bq        -2.2219769355     3.3400524340    -0.0106919824
Bq        -2.2248459626     3.4615415833     0.0616416562
Bq        -2.2171619999     3.4124429486    -0.1320856800
Bq        -2.2286879439     3.4860909007     0.1585053243
Bq        -2.2133200186     3.3878936312    -0.2289493480
Bq        -2.2325299253     3.5106402181     0.2553689924
Bq        -2.2094780373     3.3633443138    -0.3258130161
Bq        -2.2363719066     3.5351895355     0.3522326605
Bq        -2.2056360560     3.3387949965    -0.4226766842
Bq        -2.2402138879     3.5597388528     0.4490963286
Bq        -2.2017940746     3.3142456791    -0.5195403523
Bq        -2.2210039813     3.4369922660    -0.0352220119
Bq        -2.2238730084     3.5584814153     0.0371116268
Bq        -2.2161890457     3.5093827805    -0.1566157094
Bq        -2.2277149897     3.5830307327     0.1339752949
Bq        -2.2123470644     3.4848334632    -0.2534793775
Bq        -2.2315569710     3.6075800500     0.2308389630
Bq        -2.2085050831     3.4602841458    -0.3503430456
Bq        -2.2353989524     3.6321293674     0.3277026311
Bq        -2.2046631017     3.4357348284    -0.4472067137
Bq        -2.2392409337     3.6566786848     0.4245662992
Bq        -2.2008211204     3.4111855110    -0.5440703817
Bq        -2.2200310271     3.5339320979    -0.0597520413

1
2
3
4
5
6
7
8
9
10
11
12
13
14
15
16
17
18
19
20
21
22
23
24
25
26
27
28
29
30
31
32
33
34
35
36
37
38
39
40
41
42
43
44
45
46
47
48
49
50
51
52
53
54
55
56
57
58
59
60
61
62
63
64
65
66
67
68
69
70
71
72
73
74
75
76
77
78
79
80
81
82
83
84
85
86
87
88
89
90
91
92
93
94
95
96
97
98
99
100
101
102
103
104
105
106
107
108
109
110
111
112
113
114
115
116
117
118
119
120
121
122
123
124
125
126
127
128
129
130
131
132
133
134
135
136
137
138
139
140
141
142
143
144
145
146
147
148
149
150
151
152
153
154
155
156
157
158
159
160
161
162
163
164
165
166
167
168
169
170
171
172
173
174
175
176
177
178
179
180
181
182
183
184
185
186
187
188
189
190
191
192
193
194
195
196
197
198
199
200
201
202
203
204
205
206
207
208
209
210
211
212
213
214
215
216
217
218
219
220
221
222
223
224
225
226
227
228
229
230
231
232
233
234
235
236

