%nproc=8
%mem=1000MB
# rb3lyp/6-311+g** NMR geom=connectivity

Title

0 1
C    -4.0500558   -0.5771862    0.8136712
H    -5.0263804   -1.0082727    1.0024760
C    -3.9381552    0.6617804    0.2400876
H    -4.8252424    1.2338890   -0.0111295
C    -2.6768410    1.2433246    0.0057578
C    -1.4974121    0.5051527    0.2848253
C    -1.6508332   -0.7338728    0.9404026
H    -0.7713646   -1.2730967    1.2633753
C    -2.8898548   -1.2624035    1.1994307
H    -2.9683706   -2.2124563    1.7152676
C    -2.5773185    2.5963696   -0.4192930
H    -3.4870728    3.1412239   -0.6474055
C    -1.3741895    3.2147896   -0.4364030
H    -1.2997315    4.2742019   -0.6578144
C    -0.1719488    2.4994090   -0.1734588
C    -0.2043917    1.1018437    0.0192689
C     1.0513491    3.2042560   -0.0676222
H     1.0427344    4.2819499   -0.1896997
C     2.1942091    2.5487446    0.2579577
H     3.1168527    3.0912848    0.4334727
C     2.2216473    1.1336562    0.2934990
C     1.0486931    0.3945528    0.0302412
C     3.4483363    0.4614633    0.5573939
H     4.3095794    1.0606054    0.8334846
C     3.5427346   -0.8855926    0.4749463
H     4.4731467   -1.3939704    0.7038822
C     2.4490052   -1.6474447   -0.0196319
C     1.2150704   -1.0057258   -0.3013573
C     0.2531113   -1.7434440   -1.0216591
H    -0.6541356   -1.2535051   -1.3462847
C     0.4494193   -3.0628597   -1.3413779
H    -0.3083162   -3.5944309   -1.9054060
C     1.6251726   -3.7207967   -0.9552541
H     1.7670048   -4.7687404   -1.1927019
C     2.6109872   -3.0144177   -0.3183050
H     3.5525612   -3.4902813   -0.0646367
Bq         2.5431575504     0.4056308210     1.2724973923
Bq         2.7485884650     0.5194520933     0.5077471995
Bq         2.5174786861     0.3914031620     1.3680911664
Bq         2.7742673293     0.5336797523     0.4121534254
Bq         2.6458730077     0.4625414571     0.8901222959
Bq         2.6165030928     0.5472964922     0.9994566095
Bq         2.6678608215     0.5757518102     0.8082690614
Bq         2.5908242285     0.5330688331     1.0950503836
Bq         2.6935396858     0.5899794692     0.7126752873
Bq         2.5651453642     0.5188411741     1.1906441577
Bq         2.7192185501     0.6042071283     0.6170815132
Bq         2.5394664998     0.5046135151     1.2862379318
Bq         2.7448974144     0.6184347873     0.5214877391
Bq         2.5137876355     0.4903858560     1.3818317059
Bq         2.7705762787     0.6326624463     0.4258939650
Bq         2.6421819571     0.5615241512     0.9038628354
Bq         2.6128120423     0.6462791862     1.0131971491
Bq         2.6641697709     0.6747345042     0.8220096009
Bq         2.5871331780     0.6320515272     1.1087909232
Bq         2.6898486352     0.6889621633     0.7264158268
Bq         2.5614543136     0.6178238681     1.2043846973
Bq         2.7155274996     0.7031898223     0.6308220527
Bq         2.5357754493     0.6035962091     1.2999784714
Bq         2.7412063639     0.7174174813     0.5352282786
Bq         2.5100965850     0.5893685501     1.3955722455
Bq         2.7668852282     0.7316451404     0.4396345045
Bq         2.6384909066     0.6605068452     0.9176033750
Bq         2.6091209917     0.7452618802     1.0269376887
Bq         2.6604787204     0.7737171983     0.8357501405
Bq         2.5834421274     0.7310342212     1.1225314628
Bq         2.6861575847     0.7879448573     0.7401563664
Bq         2.5577632631     0.7168065622     1.2181252369
Bq         2.7118364490     0.8021725163     0.6445625923
Bq         2.5320843988     0.7025789031     1.3137190109
Bq         2.7375153134     0.8164001754     0.5489688182
Bq         2.5064055345     0.6883512441     1.4093127850
Bq         2.7631941777     0.8306278344     0.4533750441
Bq         2.6347998561     0.7594895393     0.9313439146
Bq         2.6054299412     0.8442445743     1.0406782282
Bq         2.6567876699     0.8726998923     0.8494906800
Bq         2.5797510769     0.8300169152     1.1362720023
Bq         2.6824665342     0.8869275513     0.7538969059
Bq         2.5540722126     0.8157892562     1.2318657764
Bq         2.7081453985     0.9011552104     0.6583031318
Bq         2.5283933482     0.8015615972     1.3274595505
Bq         2.7338242628     0.9153828694     0.5627093577
Bq         2.5027144839     0.7873339381     1.4230533246
Bq         2.7595031271     0.9296105284     0.4671155837
Bq         2.6311088055     0.8584722333     0.9450844541
Bq         2.6017388907     0.9432272683     1.0544187678
Bq         2.6530966193     0.9716825864     0.8632312196
Bq         2.5760600263     0.9289996093     1.1500125419
Bq         2.6787754836     0.9859102454     0.7676374455
Bq         2.5503811620     0.9147719502     1.2456063160
Bq         2.7044543480     1.0001379044     0.6720436714
Bq         2.5247022977     0.9005442912     1.3412000901
Bq         2.7301332123     1.0143655634     0.5764498973
Bq         2.4990234334     0.8863166322     1.4367938642
Bq         2.7558120766     1.0285932225     0.4808561232
Bq         2.6274177550     0.9574549273     0.9588249937
Bq         2.5980478401     1.0422099623     1.0681593073
Bq         2.6494055688     1.0706652804     0.8769717591
Bq         2.5723689758     1.0279823033     1.1637530814
Bq         2.6750844331     1.0848929394     0.7813779851
Bq         2.5466901115     1.0137546443     1.2593468555
Bq         2.7007632974     1.0991205984     0.6857842110
Bq         2.5210112472     0.9995269852     1.3549406296
Bq         2.7264421617     1.1133482575     0.5901904369
Bq         2.4953323828     0.9852993262     1.4505344037
Bq         2.7521210261     1.1275759165     0.4945966628
Bq         2.6237267045     1.0564376214     0.9725655332
Bq         2.5943567896     1.1411926564     1.0818998469
Bq         2.6457145182     1.1696479744     0.8907122987
Bq         2.5686779253     1.1269649973     1.1774936210
Bq         2.6713933826     1.1838756335     0.7951185246
Bq         2.5429990610     1.1127373383     1.2730873951
Bq         2.6970722469     1.1981032925     0.6995247505
Bq         2.5173201966     1.0985096793     1.3686811692
Bq         2.7227511112     1.2123309515     0.6039309764
Bq         2.4916413323     1.0842820203     1.4642749433
Bq         2.7484299755     1.2265586105     0.5083372023
Bq         2.6200356539     1.1554203154     0.9863060728
Bq         2.5906657391     1.2401753504     1.0956403865
Bq         2.6420234677     1.2686306685     0.9044528383
Bq         2.5649868747     1.2259476914     1.1912341606
Bq         2.6677023320     1.2828583275     0.8088590642
Bq         2.5393080104     1.2117200323     1.2868279346
Bq         2.6933811964     1.2970859865     0.7132652901
Bq         2.5136291461     1.1974923733     1.3824217087
Bq         2.7190600607     1.3113136455     0.6176715160
Bq         2.4879502818     1.1832647143     1.4780154828
Bq         2.7447389250     1.3255413046     0.5220777419
Bq         2.6163446034     1.2544030094     1.0000466124
Bq         2.5869746885     1.3391580444     1.1093809260
Bq         2.6383324172     1.3676133625     0.9181933778
Bq         2.5612958242     1.3249303854     1.2049747001
Bq         2.6640112815     1.3818410215     0.8225996037
Bq         2.5356169599     1.3107027264     1.3005684742
Bq         2.6896901458     1.3960686806     0.7270058296
Bq         2.5099380956     1.2964750674     1.3961622483
Bq         2.7153690101     1.4102963396     0.6314120555
Bq         2.4842592312     1.2822474083     1.4917560224
Bq         2.7410478745     1.4245239986     0.5358182814
Bq         2.6126535529     1.3533857035     1.0137871519
Bq         2.5832836380     1.4381407385     1.1231214656
Bq         2.6346413666     1.4665960565     0.9319339174
Bq         2.5576047737     1.4239130794     1.2187152397
Bq         2.6603202310     1.4808237156     0.8363401433
Bq         2.5319259093     1.4096854204     1.3143090138
Bq         2.6859990953     1.4950513746     0.7407463692
Bq         2.5062470450     1.3954577614     1.4099027879
Bq         2.7116779596     1.5092790336     0.6451525951
Bq         2.4805681807     1.3812301024     1.5054965620
Bq         2.7373568239     1.5235066926     0.5495588210
Bq         2.6089625023     1.4523683975     1.0275276915
Bq         2.5795925875     1.5371234325     1.1368620051
Bq         2.6309503161     1.5655787506     0.9456744569
Bq         2.5539137231     1.5228957735     1.2324557792
Bq         2.6566291804     1.5798064096     0.8500806828
Bq         2.5282348588     1.5086681145     1.3280495533
Bq         2.6823080447     1.5940340686     0.7544869088
Bq         2.5025559945     1.4944404554     1.4236433274
Bq         2.7079869091     1.6082617277     0.6588931347
Bq         2.4768771302     1.4802127964     1.5192371015
Bq         2.7336657734     1.6224893867     0.5632993606
Bq         2.6052714518     1.5513510915     1.0412682310
Bq         2.5759015369     1.6361061265     1.1506025447
Bq         2.6272592656     1.6645614446     0.9594149965
Bq         2.5502226726     1.6218784675     1.2461963188
Bq         2.6529381299     1.6787891036     0.8638212224
Bq         2.5245438083     1.6076508085     1.3417900929
Bq         2.6786169942     1.6930167627     0.7682274483
Bq         2.4988649440     1.5934231495     1.4373838670
Bq         2.7042958585     1.7072444217     0.6726336742
Bq         2.4731860796     1.5791954904     1.5329776411
Bq         2.7299747229     1.7214720807     0.5770399001
Bq         2.6015804012     1.6503337856     1.0550087706
Bq         2.5722104864     1.7350888206     1.1643430843
Bq         2.6235682150     1.7635441386     0.9731555361
Bq         2.5465316221     1.7208611616     1.2599368583
Bq         2.6492470794     1.7777717977     0.8775617620
Bq         2.5208527577     1.7066335025     1.3555306324
Bq         2.6749259437     1.7919994567     0.7819679879
Bq         2.4951738934     1.6924058435     1.4511244065
Bq         2.7006048080     1.8062271157     0.6863742138
Bq         2.4694950291     1.6781781845     1.5467181806
Bq         2.7262836723     1.8204547748     0.5907804397
Bq         2.5978893507     1.7493164796     1.0687493102
Bq         2.5685194359     1.8340715146     1.1780836238
Bq         2.6198771645     1.8625268327     0.9868960756
Bq         2.5428405715     1.8198438556     1.2736773979
Bq         2.6455560288     1.8767544917     0.8913023015
Bq         2.5171617072     1.8056161966     1.3692711720
Bq         2.6712348931     1.8909821507     0.7957085274
Bq         2.4914828429     1.7913885375     1.4648649461
Bq         2.6969137575     1.9052098098     0.7001147533
Bq         2.4658039786     1.7771608785     1.5604587202
Bq         2.7225926218     1.9194374688     0.6045209792
Bq         2.5941983002     1.8482991736     1.0824898497
Bq         2.5648283853     1.9330542087     1.1918241634
Bq         2.6161861140     1.9615095267     1.0006366152
Bq         2.5391495210     1.9188265496     1.2874179375
Bq         2.6418649783     1.9757371857     0.9050428411
Bq         2.5134706567     1.9045988906     1.3830117116
Bq         2.6675438426     1.9899648448     0.8094490670
Bq         2.4877917923     1.8903712316     1.4786054857
Bq         2.6932227069     2.0041925038     0.7138552929
Bq         2.4621129280     1.8761435725     1.5741992597
Bq         2.7189015713     2.0184201628     0.6182615188
Bq         2.5905072496     1.9472818677     1.0962303893
Bq         2.5611373348     2.0320369027     1.2055647029
Bq         2.6124950634     2.0604922207     1.0143771547
Bq         2.5354584705     2.0178092437     1.3011584770
Bq         2.6381739277     2.0747198798     0.9187833806
Bq         2.5097796061     2.0035815846     1.3967522511
Bq         2.6638527921     2.0889475388     0.8231896065
Bq         2.4841007418     1.9893539256     1.4923460252
Bq         2.6895316564     2.1031751978     0.7275958325
Bq         2.4584218775     1.9751262666     1.5879397993
Bq         2.7152105207     2.1174028569     0.6320020584
Bq         2.5868161991     2.0462645617     1.1099709288
Bq         2.5574462842     2.1310195967     1.2193052425
Bq         2.6088040129     2.1594749148     1.0281176943
Bq         2.5317674199     2.1167919377     1.3148990166
Bq         2.6344828772     2.1737025738     0.9325239202
Bq         2.5060885556     2.1025642787     1.4104927907
Bq         2.6601617415     2.1879302328     0.8369301461
Bq         2.4804096913     2.0883366196     1.5060865648
Bq         2.6858406059     2.2021578919     0.7413363720
Bq         2.4547308270     2.0741089606     1.6016803389
Bq         2.7115194702     2.2163855509     0.6457425979
Bq         2.5831251486     2.1452472558     1.1237114684
Bq         2.8385750611    -2.8181151051     0.5582210463
Bq         2.8899327897    -2.7896597870     0.3670334981
Bq         2.8128961967    -2.8323427641     0.6538148204
Bq         2.9156116540    -2.7754321280     0.2714397240
Bq         2.7872173324    -2.8465704231     0.7494085945
Bq         2.9412905184    -2.7612044690     0.1758459500
Bq         2.7615384681    -2.8607980821     0.8450023686
Bq         2.9669693827    -2.7469768099     0.0802521759

1
2
3
4
5
6
7
8
9
10
11
12
13
14
15
16
17
18
19
20
21
22
23
24
25
26
27
28
29
30
31
32
33
34
35
36
37
38
39
40
41
42
43
44
45
46
47
48
49
50
51
52
53
54
55
56
57
58
59
60
61
62
63
64
65
66
67
68
69
70
71
72
73
74
75
76
77
78
79
80
81
82
83
84
85
86
87
88
89
90
91
92
93
94
95
96
97
98
99
100
101
102
103
104
105
106
107
108
109
110
111
112
113
114
115
116
117
118
119
120
121
122
123
124
125
126
127
128
129
130
131
132
133
134
135
136
137
138
139
140
141
142
143
144
145
146
147
148
149
150
151
152
153
154
155
156
157
158
159
160
161
162
163
164
165
166
167
168
169
170
171
172
173
174
175
176
177
178
179
180
181
182
183
184
185
186
187
188
189
190
191
192
193
194
195
196
197
198
199
200
201
202
203
204
205
206
207
208
209
210
211
212
213
214
215
216
217
218
219
220
221
222
223
224
225
226
227
228
229
230
231
232
233
234
235
236

