%nproc=8
%mem=1000MB
# rb3lyp/6-311+g** NMR geom=connectivity

Title

0 1
C    -4.0500558   -0.5771862    0.8136712
H    -5.0263804   -1.0082727    1.0024760
C    -3.9381552    0.6617804    0.2400876
H    -4.8252424    1.2338890   -0.0111295
C    -2.6768410    1.2433246    0.0057578
C    -1.4974121    0.5051527    0.2848253
C    -1.6508332   -0.7338728    0.9404026
H    -0.7713646   -1.2730967    1.2633753
C    -2.8898548   -1.2624035    1.1994307
H    -2.9683706   -2.2124563    1.7152676
C    -2.5773185    2.5963696   -0.4192930
H    -3.4870728    3.1412239   -0.6474055
C    -1.3741895    3.2147896   -0.4364030
H    -1.2997315    4.2742019   -0.6578144
C    -0.1719488    2.4994090   -0.1734588
C    -0.2043917    1.1018437    0.0192689
C     1.0513491    3.2042560   -0.0676222
H     1.0427344    4.2819499   -0.1896997
C     2.1942091    2.5487446    0.2579577
H     3.1168527    3.0912848    0.4334727
C     2.2216473    1.1336562    0.2934990
C     1.0486931    0.3945528    0.0302412
C     3.4483363    0.4614633    0.5573939
H     4.3095794    1.0606054    0.8334846
C     3.5427346   -0.8855926    0.4749463
H     4.4731467   -1.3939704    0.7038822
C     2.4490052   -1.6474447   -0.0196319
C     1.2150704   -1.0057258   -0.3013573
C     0.2531113   -1.7434440   -1.0216591
H    -0.6541356   -1.2535051   -1.3462847
C     0.4494193   -3.0628597   -1.3413779
H    -0.3083162   -3.5944309   -1.9054060
C     1.6251726   -3.7207967   -0.9552541
H     1.7670048   -4.7687404   -1.1927019
C     2.6109872   -3.0144177   -0.3183050
H     3.5525612   -3.4902813   -0.0646367
Bq        -0.0295929961     2.3461047973     0.2249364487
Bq        -0.0411189401     2.4197527494     0.5155274530
Bq        -0.0257510148     2.3215554799     0.1280727807
Bq        -0.0449609214     2.4443020668     0.6123911211
Bq        -0.0219090334     2.2970061625     0.0312091126
Bq        -0.0488029027     2.4688513841     0.7092547892
Bq        -0.0180670521     2.2724568451    -0.0656545555
Bq        -0.0526448841     2.4934007015     0.8061184573
Bq        -0.0142250708     2.2479075278    -0.1625182236
Bq        -0.0334349774     2.3706541146     0.3218001168
Bq        -0.0363040045     2.4921432640     0.3941337555
Bq        -0.0286200419     2.4430446292     0.2004064193
Bq        -0.0401459859     2.5166925813     0.4909974236
Bq        -0.0247780605     2.4184953118     0.1035427512
Bq        -0.0439879672     2.5412418987     0.5878610917
Bq        -0.0209360792     2.3939459944     0.0066790831
Bq        -0.0478299485     2.5657912161     0.6847247598
Bq        -0.0170940979     2.3693966771    -0.0901845849
Bq        -0.0516719298     2.5903405335     0.7815884279
Bq        -0.0132521166     2.3448473597    -0.1870482530
Bq        -0.0324620232     2.4675939466     0.2972700874
Bq        -0.0353310503     2.5890830959     0.3696037261
Bq        -0.0276470876     2.5399844611     0.1758763899
Bq        -0.0391730316     2.6136324133     0.4664673942
Bq        -0.0238051063     2.5154351438     0.0790127218
Bq        -0.0430150130     2.6381817306     0.5633310623
Bq        -0.0199631250     2.4908858264    -0.0178509463
Bq        -0.0468569943     2.6627310480     0.6601947303
Bq        -0.0161211437     2.4663365090    -0.1147146144
Bq        -0.0506989756     2.6872803654     0.7570583984
Bq        -0.0122791623     2.4417871916    -0.2115782825
Bq        -0.0314890690     2.5645337785     0.2727400580
Bq        -0.0343580961     2.6860229278     0.3450736966
Bq        -0.0266741334     2.6369242931     0.1513463605
Bq        -0.0382000774     2.7105722452     0.4419373647
Bq        -0.0228321521     2.6123749757     0.0544826924
Bq        -0.0420420587     2.7351215626     0.5388010328
Bq        -0.0189901708     2.5878256583    -0.0423809757
Bq        -0.0458840401     2.7596708800     0.6356647009
Bq        -0.0151481894     2.5632763409    -0.1392446438
Bq        -0.0497260214     2.7842201973     0.7325283690
Bq        -0.0113062081     2.5387270236    -0.2361083119
Bq        -0.0305161147     2.6614736105     0.2482100286
Bq        -0.0333851419     2.7829627598     0.3205436672
Bq        -0.0257011792     2.7338641250     0.1268163310
Bq        -0.0372271232     2.8075120771     0.4174073353
Bq        -0.0218591979     2.7093148076     0.0299526630
Bq        -0.0410691045     2.8320613945     0.5142710034
Bq        -0.0180172165     2.6847654903    -0.0669110051
Bq        -0.0449110858     2.8566107119     0.6111346715
Bq        -0.0141752352     2.6602161729    -0.1637746732
Bq        -0.0487530672     2.8811600293     0.7079983396
Bq        -0.0103332539     2.6356668555    -0.2606383413
Bq        -0.0295431605     2.7584134424     0.2236799991
Bq        -0.0324121876     2.8799025917     0.2960136378
Bq        -0.0247282250     2.8308039570     0.1022863016
Bq        -0.0362541690     2.9044519091     0.3928773059
Bq        -0.0208862436     2.8062546396     0.0054226335
Bq        -0.0400961503     2.9290012265     0.4897409740
Bq        -0.0170442623     2.7817053222    -0.0914410346
Bq        -0.0439381316     2.9535505438     0.5866046421
Bq        -0.0132022810     2.7571560048    -0.1883047027
Bq        -0.0477801129     2.9780998612     0.6834683102
Bq        -0.0093602997     2.7326066875    -0.2851683707
Bq        -0.0285702063     2.8553532743     0.1991499697
Bq        -0.0314392334     2.9768424236     0.2714836084
Bq        -0.0237552707     2.9277437889     0.0777562722
Bq        -0.0352812147     3.0013917410     0.3683472765
Bq        -0.0199132894     2.9031944715    -0.0191073959
Bq        -0.0391231961     3.0259410584     0.4652109445
Bq        -0.0160713081     2.8786451541    -0.1159710640
Bq        -0.0429651774     3.0504903758     0.5620746126
Bq        -0.0122293268     2.8540958368    -0.2128347321
Bq        -0.0468071587     3.0750396931     0.6589382807
Bq        -0.0083873454     2.8295465194    -0.3096984002
Bq        -0.0275972521     2.9522931063     0.1746199403
Bq        -0.0304662792     3.0737822556     0.2469535789
Bq        -0.0227823165     3.0246836208     0.0532262428
Bq        -0.0343082605     3.0983315730     0.3438172470
Bq        -0.0189403352     3.0001343035    -0.0436374253
Bq        -0.0381502418     3.1228808903     0.4406809151
Bq        -0.0150983539     2.9755849861    -0.1405010934
Bq        -0.0419922232     3.1474302077     0.5375445832
Bq        -0.0112563725     2.9510356687    -0.2373647615
Bq        -0.0458342045     3.1719795251     0.6344082513
Bq        -0.0074143912     2.9264863513    -0.3342284296
Bq        -0.0266242978     3.0492329382     0.1500899108
Bq        -0.0294933250     3.1707220875     0.2224235495
Bq        -0.0218093623     3.1216234528     0.0286962133
Bq        -0.0333353063     3.1952714049     0.3192872176
Bq        -0.0179673810     3.0970741354    -0.0681674548
Bq        -0.0371772876     3.2198207223     0.4161508857
Bq        -0.0141253996     3.0725248180    -0.1650311228
Bq        -0.0410192689     3.2443700397     0.5130145538
Bq        -0.0102834183     3.0479755006    -0.2618947909
Bq        -0.0448612503     3.2689193570     0.6098782219
Bq        -0.0064414370     3.0234261833    -0.3587584590
Bq        -0.0256513436     3.1461727701     0.1255598814
Bq        -0.0285203707     3.2676619195     0.1978935201
Bq        -0.0208364081     3.2185632847     0.0041661839
Bq        -0.0323623521     3.2922112368     0.2947571882
Bq        -0.0169944267     3.1940139673    -0.0926974842
Bq        -0.0362043334     3.3167605542     0.3916208563
Bq        -0.0131524454     3.1694646500    -0.1895611523
Bq        -0.0400463147     3.3413098716     0.4884845244
Bq        -0.0093104641     3.1449153326    -0.2864248204
Bq        -0.0438882960     3.3658591890     0.5853481924
Bq        -0.0054684828     3.1203660152    -0.3832884885
Bq        -0.0246783894     3.2431126021     0.1010298520
Bq        -0.0275474165     3.3646017514     0.1733634907
Bq        -0.0198634538     3.3155031167    -0.0203638455
Bq        -0.0313893978     3.3891510688     0.2702271587
Bq        -0.0160214725     3.2909537993    -0.1172275136
Bq        -0.0352313792     3.4137003862     0.3670908268
Bq        -0.0121794912     3.2664044819    -0.2140911817
Bq        -0.0390733605     3.4382497035     0.4639544949
Bq        -0.0083375099     3.2418551645    -0.3109548498
Bq        -0.0429153418     3.4627990209     0.5608181630
Bq        -0.0044955285     3.2173058471    -0.4078185179
Bq        -0.0237054352     3.3400524340     0.0764998226
Bq        -0.0265744623     3.4615415833     0.1488334612
Bq        -0.0188904996     3.4124429486    -0.0448938749
Bq        -0.0304164436     3.4860909007     0.2456971293
Bq        -0.0150485183     3.3878936312    -0.1417575430
Bq        -0.0342584249     3.5106402181     0.3425607974
Bq        -0.0112065370     3.3633443138    -0.2386212111
Bq        -0.0381004063     3.5351895355     0.4394244655
Bq        -0.0073645556     3.3387949965    -0.3354848792
Bq        -0.0419423876     3.5597388528     0.5362881336
Bq        -0.0035225743     3.3142456791    -0.4323485473
Bq        -0.0227324810     3.4369922660     0.0519697931
Bq        -0.0256015081     3.5584814153     0.1243034318
Bq        -0.0179175454     3.5093827805    -0.0694239044
Bq        -0.0294434894     3.5830307327     0.2211670999
Bq        -0.0140755641     3.4848334632    -0.1662875725
Bq        -0.0332854707     3.6075800500     0.3180307680
Bq        -0.0102335827     3.4602841458    -0.2631512406
Bq        -0.0371274520     3.6321293674     0.4148944361
Bq        -0.0063916014     3.4357348284    -0.3600149086
Bq        -0.0409694334     3.6566786848     0.5117581042
Bq        -0.0025496201     3.4111855110    -0.4568785767
Bq        -0.0217595267     3.5339320979     0.0274397637
Bq        -0.0246285538     3.6554212472     0.0997734024
Bq        -0.0169445912     3.6063226125    -0.0939539338
Bq        -0.0284705352     3.6799705646     0.1966370705
Bq        -0.0131026098     3.5817732951    -0.1908176019
Bq        -0.0323125165     3.7045198820     0.2935007386
Bq        -0.0092606285     3.5572239777    -0.2876812700
Bq        -0.0361544978     3.7290691993     0.3903644066
Bq        -0.0054186472     3.5326746603    -0.3845449381
Bq        -0.0399964791     3.7536185167     0.4872280747
Bq        -0.0015766659     3.5081253430    -0.4814086062
Bq        -0.0207865725     3.6308719298     0.0029097343
Bq        -0.0236555996     3.7523610792     0.0752433729
Bq        -0.0159716369     3.7032624444    -0.1184839632
Bq        -0.0274975809     3.7769103965     0.1721070410
Bq        -0.0121296556     3.6787131270    -0.2153476313
Bq        -0.0313395623     3.8014597139     0.2689707091
Bq        -0.0082876743     3.6541638097    -0.3122112994
Bq        -0.0351815436     3.8260090313     0.3658343772
Bq        -0.0044456930     3.6296144923    -0.4090749675
Bq        -0.0390235249     3.8505583487     0.4626980453
Bq        -0.0006037116     3.6050651749    -0.5059386356
Bq        -0.0198136183     3.7278117618    -0.0216202951
Bq        -0.0226826454     3.8493009111     0.0507133435
Bq        -0.0149986827     3.8002022763    -0.1430139927
Bq        -0.0265246267     3.8738502285     0.1475770116
Bq        -0.0111567014     3.7756529590    -0.2398776607
Bq        -0.0303666080     3.8983995458     0.2444406797
Bq        -0.0073147201     3.7511036416    -0.3367413288
Bq        -0.0342085894     3.9229488632     0.3413043478
Bq        -0.0034727387     3.7265543242    -0.4336049969
Bq        -0.0380505707     3.9474981806     0.4381680159
Bq         0.0003692426     3.7020050068    -0.5304686650
Bq        -0.0188406641     3.8247515937    -0.0461503246
Bq        -0.0217096912     3.9462407430     0.0261833141
Bq        -0.0140257285     3.8971421083    -0.1675440221
Bq        -0.0255516725     3.9707900604     0.1230469822
Bq        -0.0101837472     3.8725927909    -0.2644076902
Bq        -0.0293936538     3.9953393778     0.2199106503
Bq        -0.0063417658     3.8480434735    -0.3612713583
Bq        -0.0332356351     4.0198886952     0.3167743184
Bq        -0.0024997845     3.8234941562    -0.4581350264
Bq        -0.0370776165     4.0444380125     0.4136379865
Bq         0.0013421968     3.7989448388    -0.5549986944
Bq        -0.0178677098     3.9216914257    -0.0706803540
Bq        -0.0207367369     4.0431805750     0.0016532847
Bq        -0.0130527743     3.9940819402    -0.1920740515
Bq        -0.0245787183     4.0677298924     0.0985169528
Bq        -0.0092107929     3.9695326228    -0.2889377196
Bq        -0.0284206996     4.0922792097     0.1953806208
Bq        -0.0053688116     3.9449833055    -0.3858013877
Bq        -0.0322626809     4.1168285271     0.2922442889
Bq        -0.0015268303     3.9204339881    -0.4826650558
Bq        -0.0361046623     4.1413778445     0.3891079570
Bq         0.0023151510     3.8958846707    -0.5795287239
Bq        -0.0168947556     4.0186312576    -0.0952103834
Bq        -0.0197637827     4.1401204069    -0.0228767448
Bq        -0.0120798201     4.0910217722    -0.2166040809
Bq        -0.0236057640     4.1646697243     0.0739869233

1
2
3
4
5
6
7
8
9
10
11
12
13
14
15
16
17
18
19
20
21
22
23
24
25
26
27
28
29
30
31
32
33
34
35
36
37
38
39
40
41
42
43
44
45
46
47
48
49
50
51
52
53
54
55
56
57
58
59
60
61
62
63
64
65
66
67
68
69
70
71
72
73
74
75
76
77
78
79
80
81
82
83
84
85
86
87
88
89
90
91
92
93
94
95
96
97
98
99
100
101
102
103
104
105
106
107
108
109
110
111
112
113
114
115
116
117
118
119
120
121
122
123
124
125
126
127
128
129
130
131
132
133
134
135
136
137
138
139
140
141
142
143
144
145
146
147
148
149
150
151
152
153
154
155
156
157
158
159
160
161
162
163
164
165
166
167
168
169
170
171
172
173
174
175
176
177
178
179
180
181
182
183
184
185
186
187
188
189
190
191
192
193
194
195
196
197
198
199
200
201
202
203
204
205
206
207
208
209
210
211
212
213
214
215
216
217
218
219
220
221
222
223
224
225
226
227
228
229
230
231
232
233
234
235
236

