%nproc=8
%mem=1000MB
# rb3lyp/6-311+g** NMR geom=connectivity

Title

0 1
C    -4.0500558   -0.5771862    0.8136712
H    -5.0263804   -1.0082727    1.0024760
C    -3.9381552    0.6617804    0.2400876
H    -4.8252424    1.2338890   -0.0111295
C    -2.6768410    1.2433246    0.0057578
C    -1.4974121    0.5051527    0.2848253
C    -1.6508332   -0.7338728    0.9404026
H    -0.7713646   -1.2730967    1.2633753
C    -2.8898548   -1.2624035    1.1994307
H    -2.9683706   -2.2124563    1.7152676
C    -2.5773185    2.5963696   -0.4192930
H    -3.4870728    3.1412239   -0.6474055
C    -1.3741895    3.2147896   -0.4364030
H    -1.2997315    4.2742019   -0.6578144
C    -0.1719488    2.4994090   -0.1734588
C    -0.2043917    1.1018437    0.0192689
C     1.0513491    3.2042560   -0.0676222
H     1.0427344    4.2819499   -0.1896997
C     2.1942091    2.5487446    0.2579577
H     3.1168527    3.0912848    0.4334727
C     2.2216473    1.1336562    0.2934990
C     1.0486931    0.3945528    0.0302412
C     3.4483363    0.4614633    0.5573939
H     4.3095794    1.0606054    0.8334846
C     3.5427346   -0.8855926    0.4749463
H     4.4731467   -1.3939704    0.7038822
C     2.4490052   -1.6474447   -0.0196319
C     1.2150704   -1.0057258   -0.3013573
C     0.2531113   -1.7434440   -1.0216591
H    -0.6541356   -1.2535051   -1.3462847
C     0.4494193   -3.0628597   -1.3413779
H    -0.3083162   -3.5944309   -1.9054060
C     1.6251726   -3.7207967   -0.9552541
H     1.7670048   -4.7687404   -1.1927019
C     2.6109872   -3.0144177   -0.3183050
H     3.5525612   -3.4902813   -0.0646367
Bq        -0.7629396531    -4.0512170340    -1.1429883123
Bq        -0.4440455428    -3.8382918251    -1.8451061100
Bq        -0.8028014169    -4.0778326851    -1.0552235876
Bq        -0.4041837790    -3.8116761740    -1.9328708347
Bq        -0.6034925979    -3.9447544296    -1.4940472111
Bq        -0.6543608351    -3.8749770979    -1.3820492360
Bq        -0.5746373075    -3.8217457957    -1.5575786854
Bq        -0.6942225989    -3.9015927491    -1.2942845112
Bq        -0.5347755437    -3.7951301446    -1.6453434101
Bq        -0.7340843627    -3.9282084002    -1.2065197865
Bq        -0.4949137799    -3.7685144935    -1.7331081348
Bq        -0.7739461264    -3.9548240513    -1.1187550618
Bq        -0.4550520161    -3.7418988424    -1.8208728595
Bq        -0.8138078902    -3.9814397024    -1.0309903371
Bq        -0.4151902524    -3.7152831913    -1.9086375842
Bq        -0.6144990713    -3.8483614468    -1.4698139607
Bq        -0.6653673085    -3.7785841152    -1.3578159855
Bq        -0.5856437809    -3.7253528130    -1.5333454349
Bq        -0.7052290722    -3.8051997663    -1.2700512608
Bq        -0.5457820171    -3.6987371619    -1.6211101596
Bq        -0.7450908360    -3.8318154174    -1.1822865361
Bq        -0.5059202533    -3.6721215108    -1.7088748844
Bq        -0.7849525998    -3.8584310686    -1.0945218114
Bq        -0.4660584895    -3.6455058597    -1.7966396091
Bq        -0.8248143636    -3.8850467197    -1.0067570867
Bq        -0.4261967257    -3.6188902086    -1.8844043338
Bq        -0.6255055447    -3.7519684641    -1.4455807102
Bq        -0.6763737818    -3.6821911325    -1.3335827350
Bq        -0.5966502542    -3.6289598303    -1.5091121845
Bq        -0.7162355456    -3.7088067836    -1.2458180103
Bq        -0.5567884905    -3.6023441792    -1.5968769092
Bq        -0.7560973094    -3.7354224347    -1.1580532856
Bq        -0.5169267267    -3.5757285281    -1.6846416339
Bq        -0.7959590732    -3.7620380858    -1.0702885609
Bq        -0.4770649629    -3.5491128770    -1.7724063586
Bq        -0.8358208370    -3.7886537369    -0.9825238362
Bq        -0.4372031991    -3.5224972259    -1.8601710833
Bq        -0.6365120180    -3.6555754814    -1.4213474598
Bq        -0.6873802552    -3.5857981498    -1.3093494846
Bq        -0.6076567276    -3.5325668476    -1.4848789340
Bq        -0.7272420190    -3.6124138009    -1.2215847599
Bq        -0.5677949638    -3.5059511965    -1.5726436587
Bq        -0.7671037828    -3.6390294520    -1.1338200352
Bq        -0.5279332000    -3.4793355454    -1.6604083834
Bq        -0.8069655466    -3.6656451031    -1.0460553104
Bq        -0.4880714363    -3.4527198943    -1.7481731081
Bq        -0.8468273103    -3.6922607542    -0.9582905857
Bq        -0.4482096725    -3.4261042432    -1.8359378329
Bq        -0.6475184914    -3.5591824987    -1.3971142093
Bq        -0.6983867286    -3.4894051671    -1.2851162341
Bq        -0.6186632010    -3.4361738649    -1.4606456836
Bq        -0.7382484924    -3.5160208182    -1.1973515094
Bq        -0.5788014372    -3.4095582138    -1.5484104083
Bq        -0.7781102561    -3.5426364693    -1.1095867847
Bq        -0.5389396734    -3.3829425627    -1.6361751330
Bq        -0.8179720199    -3.5692521204    -1.0218220600
Bq        -0.4990779096    -3.3563269116    -1.7239398577
Bq        -0.8578337837    -3.5958677715    -0.9340573353
Bq        -0.4592161458    -3.3297112605    -1.8117045824
Bq        -0.6585249648    -3.4627895160    -1.3728809588
Bq        -0.7093932019    -3.3930121844    -1.2608829837
Bq        -0.6296696744    -3.3397808822    -1.4364124331
Bq        -0.7492549657    -3.4196278355    -1.1731182590
Bq        -0.5898079106    -3.3131652311    -1.5241771578
Bq        -0.7891167295    -3.4462434866    -1.0853535342
Bq        -0.5499461468    -3.2865495800    -1.6119418825
Bq        -0.8289784933    -3.4728591377    -0.9975888095
Bq        -0.5100843830    -3.2599339288    -1.6997066072
Bq        -0.8688402571    -3.4994747888    -0.9098240848
Bq        -0.4702226192    -3.2333182777    -1.7874713319
Bq        -0.6695314382    -3.3663965333    -1.3486477084
Bq        -0.7203996753    -3.2966192017    -1.2366497332
Bq        -0.6406761477    -3.2433878995    -1.4121791826
Bq        -0.7602614391    -3.3232348528    -1.1488850085
Bq        -0.6008143839    -3.2167722484    -1.4999439073
Bq        -0.8001232029    -3.3498505039    -1.0611202838
Bq        -0.5609526202    -3.1901565972    -1.5877086321
Bq        -0.8399849667    -3.3764661550    -0.9733555591
Bq        -0.5210908564    -3.1635409461    -1.6754733568
Bq        -0.8798467305    -3.4030818061    -0.8855908344
Bq        -0.4812290926    -3.1369252950    -1.7632380815
Bq        -0.6805379115    -3.2700035506    -1.3244144579
Bq        -0.7314061487    -3.2002262190    -1.2124164828
Bq        -0.6516826211    -3.1469949167    -1.3879459322
Bq        -0.7712679125    -3.2268418701    -1.1246517580
Bq        -0.6118208573    -3.1203792656    -1.4757106569
Bq        -0.8111296763    -3.2534575212    -1.0368870333
Bq        -0.5719590935    -3.0937636145    -1.5634753816
Bq        -0.8509914400    -3.2800731723    -0.9491223086
Bq        -0.5320973297    -3.0671479634    -1.6512401063
Bq        -0.8908532038    -3.3066888234    -0.8613575839
Bq        -0.4922355660    -3.0405323123    -1.7390048310
Bq        -0.6915443849    -3.1736105679    -1.3001812075
Bq        -0.7424126221    -3.1038332362    -1.1881832323
Bq        -0.6626890945    -3.0506019340    -1.3637126817
Bq        -0.7822743858    -3.1304488874    -1.1004185076
Bq        -0.6228273307    -3.0239862829    -1.4514774064
Bq        -0.8221361496    -3.1570645385    -1.0126537829
Bq        -0.5829655669    -2.9973706318    -1.5392421311
Bq        -0.8619979134    -3.1836801896    -0.9248890582
Bq        -0.5431038031    -2.9707549807    -1.6270068559
Bq        -0.9018596772    -3.2102958407    -0.8371243334
Bq        -0.5032420393    -2.9441393296    -1.7147715806
Bq        -0.7025508583    -3.0772175851    -1.2759479570
Bq        -0.7534190954    -3.0074402535    -1.1639499818
Bq        -0.6736955679    -2.9542089513    -1.3394794313
Bq        -0.7932808592    -3.0340559046    -1.0761852571
Bq        -0.6338338041    -2.9275933002    -1.4272441560
Bq        -0.8331426230    -3.0606715558    -0.9884205324
Bq        -0.5939720403    -2.9009776491    -1.5150088807
Bq        -0.8730043868    -3.0872872069    -0.9006558077
Bq        -0.5541102765    -2.8743619980    -1.6027736054
Bq        -0.9128661506    -3.1139028580    -0.8128910830
Bq        -0.5142485127    -2.8477463469    -1.6905383301
Bq        -0.7135573316    -2.9808246024    -1.2517147066
Bq        -0.7644255688    -2.9110472708    -1.1397167314
Bq        -0.6847020412    -2.8578159686    -1.3152461808
Bq        -0.8042873326    -2.9376629219    -1.0519520067
Bq        -0.6448402774    -2.8312003175    -1.4030109055
Bq        -0.8441490964    -2.9642785730    -0.9641872820
Bq        -0.6049785137    -2.8045846664    -1.4907756302
Bq        -0.8840108602    -2.9908942241    -0.8764225572
Bq        -0.5651167499    -2.7779690153    -1.5785403549
Bq        -0.9238726240    -3.0175098753    -0.7886578325
Bq        -0.5252549861    -2.7513533642    -1.6663050797
Bq        -0.7245638050    -2.8844316197    -1.2274814561
Bq        -0.7754320422    -2.8146542881    -1.1154834809
Bq        -0.6957085146    -2.7614229859    -1.2910129303
Bq        -0.8152938060    -2.8412699392    -1.0277187562
Bq        -0.6558467508    -2.7348073348    -1.3787776551
Bq        -0.8551555697    -2.8678855903    -0.9399540315
Bq        -0.6159849870    -2.7081916837    -1.4665423798
Bq        -0.8950173335    -2.8945012414    -0.8521893068
Bq        -0.5761232232    -2.6815760326    -1.5543071045
Bq        -0.9348790973    -2.9211168925    -0.7644245821
Bq        -0.5362614594    -2.6549603815    -1.6420718292
Bq        -0.7355702784    -2.7880386370    -1.2032482056
Bq        -0.7864385155    -2.7182613054    -1.0912502305
Bq        -0.7067149880    -2.6650300032    -1.2667796799
Bq        -0.8263002793    -2.7448769565    -1.0034855058
Bq        -0.6668532242    -2.6384143521    -1.3545444046
Bq        -0.8661620431    -2.7714926076    -0.9157207810
Bq        -0.6269914604    -2.6117987010    -1.4423091293
Bq        -0.9060238069    -2.7981082587    -0.8279560563
Bq        -0.5871296966    -2.5851830499    -1.5300738540
Bq        -0.9458855707    -2.8247239098    -0.7401913316
Bq        -0.5472679328    -2.5585673988    -1.6178385787
Bq        -0.7465767518    -2.6916456543    -1.1790149552
Bq        -0.7974449889    -2.6218683227    -1.0670169800
Bq        -0.7177214613    -2.5686370205    -1.2425464294
Bq        -0.8373067527    -2.6484839738    -0.9792522553
Bq        -0.6778596976    -2.5420213694    -1.3303111541
Bq        -0.8771685165    -2.6750996249    -0.8914875306
Bq        -0.6379979338    -2.5154057183    -1.4180758789
Bq        -0.9170302803    -2.7017152760    -0.8037228059
Bq        -0.5981361700    -2.4887900672    -1.5058406036
Bq        -0.9568920441    -2.7283309271    -0.7159580812
Bq        -0.5582744062    -2.4621744160    -1.5936053283
Bq        -0.7575832251    -2.5952526716    -1.1547817047
Bq        -0.8084514623    -2.5254753400    -1.0427837295
Bq        -0.7287279347    -2.4722440378    -1.2183131790
Bq        -0.8483132261    -2.5520909911    -0.9550190048
Bq        -0.6888661709    -2.4456283867    -1.3060779037
Bq        -0.8881749899    -2.5787066422    -0.8672542801
Bq        -0.6490044071    -2.4190127355    -1.3938426284
Bq        -0.9280367537    -2.6053222933    -0.7794895554
Bq        -0.6091426434    -2.3923970844    -1.4816073531
Bq        -0.9678985174    -2.6319379444    -0.6917248307
Bq        -0.5692808796    -2.3657814333    -1.5693720778
Bq        -0.7685896985    -2.4988596889    -1.1305484543
Bq        -0.8194579357    -2.4290823573    -1.0185504791
Bq        -0.7397344081    -2.3758510550    -1.1940799285
Bq        -0.8593196994    -2.4556980084    -0.9307857544
Bq        -0.6998726443    -2.3492354039    -1.2818446532
Bq        -0.8991814632    -2.4823136595    -0.8430210297
Bq        -0.6600108805    -2.3226197528    -1.3696093779
Bq        -0.9390432270    -2.5089293106    -0.7552563050
Bq        -0.6201491167    -2.2960041017    -1.4573741027
Bq        -0.9789049908    -2.5355449617    -0.6674915802
Bq        -0.5802873529    -2.2693884506    -1.5451388274
Bq        -0.7795961719    -2.4024667062    -1.1063152038
Bq        -0.8304644090    -2.3326893746    -0.9943172286
Bq        -0.7507408815    -2.2794580723    -1.1698466781
Bq        -0.8703261728    -2.3593050257    -0.9065525039
Bq        -0.7108791177    -2.2528424212    -1.2576114028
Bq        -0.9101879366    -2.3859206768    -0.8187877792
Bq        -0.6710173539    -2.2262267701    -1.3453761275
Bq        -0.9500497004    -2.4125363279    -0.7310230545
Bq        -0.6311555901    -2.1996111190    -1.4331408522
Bq        -0.9899114642    -2.4391519790    -0.6432583298
Bq        -0.5912938263    -2.1729954679    -1.5209055769
Bq        -0.7906026452    -2.3060737234    -1.0820819533
Bq        -0.8414708824    -2.2362963918    -0.9700839782
Bq        -0.7617473548    -2.1830650896    -1.1456134276
Bq        -0.8813326462    -2.2629120429    -0.8823192535
Bq        -0.7218855910    -2.1564494385    -1.2333781523
Bq        -0.9211944100    -2.2895276941    -0.7945545287
Bq        -0.6820238273    -2.1298337874    -1.3211428770
Bq        -0.9610561738    -2.3161433452    -0.7067898040
Bq        -0.6421620635    -2.1032181363    -1.4089076017

1
2
3
4
5
6
7
8
9
10
11
12
13
14
15
16
17
18
19
20
21
22
23
24
25
26
27
28
29
30
31
32
33
34
35
36
37
38
39
40
41
42
43
44
45
46
47
48
49
50
51
52
53
54
55
56
57
58
59
60
61
62
63
64
65
66
67
68
69
70
71
72
73
74
75
76
77
78
79
80
81
82
83
84
85
86
87
88
89
90
91
92
93
94
95
96
97
98
99
100
101
102
103
104
105
106
107
108
109
110
111
112
113
114
115
116
117
118
119
120
121
122
123
124
125
126
127
128
129
130
131
132
133
134
135
136
137
138
139
140
141
142
143
144
145
146
147
148
149
150
151
152
153
154
155
156
157
158
159
160
161
162
163
164
165
166
167
168
169
170
171
172
173
174
175
176
177
178
179
180
181
182
183
184
185
186
187
188
189
190
191
192
193
194
195
196
197
198
199
200
201
202
203
204
205
206
207
208
209
210
211
212
213
214
215
216
217
218
219
220
221
222
223
224
225
226
227
228
229
230
231
232
233
234
235
236

