%nproc=8
%mem=1000MB
# rb3lyp/6-311+g** NMR geom=connectivity

Title

0 1
C    -4.0500558   -0.5771862    0.8136712
H    -5.0263804   -1.0082727    1.0024760
C    -3.9381552    0.6617804    0.2400876
H    -4.8252424    1.2338890   -0.0111295
C    -2.6768410    1.2433246    0.0057578
C    -1.4974121    0.5051527    0.2848253
C    -1.6508332   -0.7338728    0.9404026
H    -0.7713646   -1.2730967    1.2633753
C    -2.8898548   -1.2624035    1.1994307
H    -2.9683706   -2.2124563    1.7152676
C    -2.5773185    2.5963696   -0.4192930
H    -3.4870728    3.1412239   -0.6474055
C    -1.3741895    3.2147896   -0.4364030
H    -1.2997315    4.2742019   -0.6578144
C    -0.1719488    2.4994090   -0.1734588
C    -0.2043917    1.1018437    0.0192689
C     1.0513491    3.2042560   -0.0676222
H     1.0427344    4.2819499   -0.1896997
C     2.1942091    2.5487446    0.2579577
H     3.1168527    3.0912848    0.4334727
C     2.2216473    1.1336562    0.2934990
C     1.0486931    0.3945528    0.0302412
C     3.4483363    0.4614633    0.5573939
H     4.3095794    1.0606054    0.8334846
C     3.5427346   -0.8855926    0.4749463
H     4.4731467   -1.3939704    0.7038822
C     2.4490052   -1.6474447   -0.0196319
C     1.2150704   -1.0057258   -0.3013573
C     0.2531113   -1.7434440   -1.0216591
H    -0.6541356   -1.2535051   -1.3462847
C     0.4494193   -3.0628597   -1.3413779
H    -0.3083162   -3.5944309   -1.9054060
C     1.6251726   -3.7207967   -0.9552541
H     1.7670048   -4.7687404   -1.1927019
C     2.6109872   -3.0144177   -0.3183050
H     3.5525612   -3.4902813   -0.0646367
Bq         0.9428131705     2.7421375656     0.6091742113
Bq         0.9717650766     2.7323105954     0.4115249821
Bq         0.9283372175     2.7470510506     0.7079988259
Bq         0.9862410297     2.7273971103     0.3127003675
Bq         0.9138612645     2.7519645357     0.8068234404
Bq         1.0007169827     2.7224836252     0.2138757529
Bq         0.8993853114     2.7568780208     0.9056480550
Bq         1.0151929358     2.7175701401     0.1150511384
Bq         0.8849093584     2.7617915059     1.0044726696
Bq         1.0296688888     2.7126566551     0.0162265238
Bq         0.9572891236     2.7372240805     0.5103495967
Bq         0.9435253045     2.8420167809     0.6043126065
Bq         0.9724772106     2.8321898108     0.4066633773
Bq         0.9290493514     2.8469302660     0.7031372211
Bq         0.9869531636     2.8272763257     0.3078387628
Bq         0.9145733984     2.8518437511     0.8019618357
Bq         1.0014291167     2.8223628406     0.2090141482
Bq         0.9000974454     2.8567572362     0.9007864503
Bq         1.0159050697     2.8174493555     0.1101895336
Bq         0.8856214923     2.8616707213     0.9996110648
Bq         1.0303810228     2.8125358704     0.0113649190
Bq         0.9580012575     2.8371032959     0.5054879919
Bq         0.9442374384     2.9418959963     0.5994510017
Bq         0.9731893445     2.9320690261     0.4018017726
Bq         0.9297614854     2.9468094814     0.6982756163
Bq         0.9876652976     2.9271555411     0.3029771580
Bq         0.9152855323     2.9517229665     0.7971002309
Bq         1.0021412506     2.9222420560     0.2041525434
Bq         0.9008095793     2.9566364516     0.8959248455
Bq         1.0166172036     2.9173285709     0.1053279288
Bq         0.8863336262     2.9615499366     0.9947494601
Bq         1.0310931567     2.9124150858     0.0065033142
Bq         0.9587133915     2.9369825112     0.5006263872
Bq         0.9449495724     3.0417752117     0.5945893970
Bq         0.9739014785     3.0319482415     0.3969401678
Bq         0.9304736193     3.0466886968     0.6934140116
Bq         0.9883774315     3.0270347564     0.2981155532
Bq         0.9159976663     3.0516021819     0.7922386261
Bq         1.0028533845     3.0221212714     0.1992909386
Bq         0.9015217132     3.0565156669     0.8910632407
Bq         1.0173293376     3.0172077863     0.1004663241
Bq         0.8870457602     3.0614291520     0.9898878553
Bq         1.0318052906     3.0122943012     0.0016417095
Bq         0.9594255254     3.0368617266     0.4957647824
Bq         0.9456617063     3.1416544271     0.5897277922
Bq         0.9746136124     3.1318274569     0.3920785630
Bq         0.9311857533     3.1465679121     0.6885524068
Bq         0.9890895654     3.1269139718     0.2932539485
Bq         0.9167098002     3.1514813972     0.7873770214
Bq         1.0035655185     3.1220004867     0.1944293339
Bq         0.9022338472     3.1563948823     0.8862016360
Bq         1.0180414715     3.1170870017     0.0956047193
Bq         0.8877578941     3.1613083674     0.9850262505
Bq         1.0325174246     3.1121735166    -0.0032198953
Bq         0.9601376594     3.1367409420     0.4909031776
Bq         0.9463738403     3.2415336424     0.5848661874
Bq         0.9753257463     3.2317066723     0.3872169583
Bq         0.9318978872     3.2464471275     0.6836908020
Bq         0.9898016994     3.2267931872     0.2883923437
Bq         0.9174219342     3.2513606126     0.7825154166
Bq         1.0042776524     3.2218797021     0.1895677291
Bq         0.9029459811     3.2562740977     0.8813400312
Bq         1.0187536055     3.2169662170     0.0907431145
Bq         0.8884700281     3.2611875828     0.9801646458
Bq         1.0332295585     3.2120527319    -0.0080815001
Bq         0.9608497933     3.2366201574     0.4860415729
Bq         0.9470859742     3.3414128578     0.5800045827
Bq         0.9760378803     3.3315858877     0.3823553535
Bq         0.9326100211     3.3463263429     0.6788291973
Bq         0.9905138333     3.3266724026     0.2835307389
Bq         0.9181340681     3.3512398280     0.7776538118
Bq         1.0049897864     3.3217589175     0.1847061243
Bq         0.9036581151     3.3561533131     0.8764784264
Bq         1.0194657394     3.3168454324     0.0858815098
Bq         0.8891821620     3.3610667981     0.9753030410
Bq         1.0339416925     3.3119319473    -0.0129431048
Bq         0.9615619272     3.3364993727     0.4811799681
Bq         0.9477981081     3.4412920732     0.5751429779
Bq         0.9767500142     3.4314651030     0.3774937487
Bq         0.9333221551     3.4462055583     0.6739675925
Bq         0.9912259673     3.4265516179     0.2786691342
Bq         0.9188462020     3.4511190434     0.7727922071
Bq         1.0057019203     3.4216381329     0.1798445196
Bq         0.9043702490     3.4560325284     0.8716168217
Bq         1.0201778734     3.4167246478     0.0810199050
Bq         0.8898942960     3.4609460135     0.9704414362
Bq         1.0346538264     3.4118111627    -0.0178047096
Bq         0.9622740612     3.4363785881     0.4763183633
Bq         0.9485102421     3.5411712886     0.5702813731
Bq         0.9774621482     3.5313443184     0.3726321440
Bq         0.9340342890     3.5460847737     0.6691059877
Bq         0.9919381012     3.5264308333     0.2738075294
Bq         0.9195583360     3.5509982587     0.7679306023
Bq         1.0064140543     3.5215173482     0.1749829148
Bq         0.9050823829     3.5559117438     0.8667552169
Bq         1.0208900073     3.5166038632     0.0761583002
Bq         0.8906064299     3.5608252289     0.9655798315
Bq         1.0353659603     3.5116903781    -0.0226663144
Bq         0.9629861951     3.5362578035     0.4714567586
Bq         0.9492223760     3.6410505039     0.5654197684
Bq         0.9781742821     3.6312235338     0.3677705392
Bq         0.9347464230     3.6459639890     0.6642443830
Bq         0.9926502352     3.6263100487     0.2689459246
Bq         0.9202704699     3.6508774741     0.7630689975
Bq         1.0071261882     3.6213965636     0.1701213100
Bq         0.9057945169     3.6557909592     0.8618936121
Bq         1.0216021412     3.6164830785     0.0712966955
Bq         0.8913185638     3.6607044443     0.9607182267
Bq         1.0360780943     3.6115695935    -0.0275279191
Bq         0.9636983291     3.6361370189     0.4665951538
Bq         0.9499345100     3.7409297193     0.5605581636
Bq         0.9788864160     3.7311027492     0.3629089344
Bq         0.9354585569     3.7458432044     0.6593827782
Bq         0.9933623691     3.7261892641     0.2640843199
Bq         0.9209826039     3.7507566895     0.7582073928
Bq         1.0078383221     3.7212757790     0.1652597053
Bq         0.9065066508     3.7556701746     0.8570320074
Bq         1.0223142752     3.7163622939     0.0664350907
Bq         0.8920306978     3.7605836597     0.9558566220
Bq         1.0367902282     3.7114488088    -0.0323895239
Bq         0.9644104630     3.7360162342     0.4617335490
Bq         0.9506466439     3.8408089347     0.5556965588
Bq         0.9795985500     3.8309819645     0.3580473297
Bq         0.9361706909     3.8457224198     0.6545211734
Bq         0.9940745030     3.8260684795     0.2592227151
Bq         0.9216947378     3.8506359049     0.7533457880
Bq         1.0085504561     3.8211549944     0.1603981005
Bq         0.9072187848     3.8555493900     0.8521704026
Bq         1.0230264091     3.8162415093     0.0615734859
Bq         0.8927428317     3.8604628750     0.9509950172
Bq         1.0375023622     3.8113280242    -0.0372511287
Bq         0.9651225969     3.8358954496     0.4568719443
Bq         0.9513587778     3.9406881501     0.5508349541
Bq         0.9803106839     3.9308611799     0.3531857249
Bq         0.9368828248     3.9456016352     0.6496595687
Bq         0.9947866370     3.9259476948     0.2543611103
Bq         0.9224068718     3.9505151202     0.7484841832
Bq         1.0092625900     3.9210342098     0.1555364957
Bq         0.9079309187     3.9554286053     0.8473087978
Bq         1.0237385431     3.9161207247     0.0567118812
Bq         0.8934549657     3.9603420904     0.9461334124
Bq         1.0382144961     3.9112072396    -0.0421127334
Bq         0.9658347309     3.9357746650     0.4520103395
Bq         0.9520709118     4.0405673655     0.5459733493
Bq         0.9810228179     4.0307403953     0.3483241201
Bq         0.9375949587     4.0454808505     0.6447979639
Bq         0.9954987709     4.0258269102     0.2494995056
Bq         0.9231190057     4.0503943356     0.7436225785
Bq         1.0099747240     4.0209134251     0.1506748910
Bq         0.9086430527     4.0553078207     0.8424471931
Bq         1.0244506770     4.0159999400     0.0518502764
Bq         0.8941670996     4.0602213058     0.9412718077
Bq         1.0389266301     4.0110864550    -0.0469743382
Bq         0.9665468648     4.0356538804     0.4471487347
Bq         0.9527830457     4.1404465808     0.5411117445
Bq         0.9817349518     4.1306196107     0.3434625154
Bq         0.9383070927     4.1453600659     0.6399363591
Bq         0.9962109049     4.1257061256     0.2446379008
Bq         0.9238311396     4.1502735510     0.7387609737
Bq         1.0106868579     4.1207926405     0.1458132862
Bq         0.9093551866     4.1551870361     0.8375855883
Bq         1.0251628109     4.1158791554     0.0469886716
Bq         0.8948792335     4.1601005212     0.9364102029
Bq         1.0396387640     4.1109656703    -0.0518359430
Bq         0.9672589988     4.1355330958     0.4422871300
Bq         0.9534951797     4.2403257962     0.5362501398
Bq         0.9824470858     4.2304988260     0.3386009106
Bq         0.9390192266     4.2452392813     0.6350747544
Bq         0.9969230388     4.2255853410     0.2397762960
Bq         0.9245432736     4.2501527664     0.7338993689
Bq         1.0113989918     4.2206718559     0.1409516814
Bq         0.9100673205     4.2550662515     0.8327239835
Bq         1.0258749449     4.2157583708     0.0421270669
Bq         0.8955913675     4.2599797365     0.9315485981
Bq         1.0403508979     4.2108448857    -0.0566975477
Bq         0.9679711327     4.2354123111     0.4374255252
Bq         0.9542073136     4.3402050116     0.5313885350
Bq         0.9831592197     4.3303780414     0.3337393058
Bq         0.9397313606     4.3451184967     0.6302131496
Bq         0.9976351727     4.3254645563     0.2349146913
Bq         0.9252554075     4.3500319818     0.7290377642
Bq         1.0121111258     4.3205510713     0.1360900767
Bq         0.9107794545     4.3549454668     0.8278623788
Bq         1.0265870788     4.3156375862     0.0372654621
Bq         0.8963035014     4.3598589519     0.9266869934
Bq         1.0410630319     4.3107241011    -0.0615591525
Bq         0.9686832667     4.3352915265     0.4325639204
Bq         1.0175447404    -0.6537557573     0.7889622323
Bq         1.0464966465    -0.6635827274     0.5913130031
Bq         1.0030687874    -0.6488422722     0.8877868468
Bq         1.0609725995    -0.6684962125     0.4924883885
Bq         0.9885928343    -0.6439287871     0.9866114614
Bq         1.0754485526    -0.6734096976     0.3936637739
Bq         0.9741168813    -0.6390153020     1.0854360760
Bq         1.0899245056    -0.6783231827     0.2948391593
Bq         0.9596409282    -0.6341018169     1.1842606906
Bq         1.1044004587    -0.6832366678     0.1960145447
Bq         1.0320206934    -0.6586692423     0.6901376177
Bq         1.0182568743    -0.5538765419     0.7841006275
Bq         1.0472087804    -0.5637035121     0.5864513983

1
2
3
4
5
6
7
8
9
10
11
12
13
14
15
16
17
18
19
20
21
22
23
24
25
26
27
28
29
30
31
32
33
34
35
36
37
38
39
40
41
42
43
44
45
46
47
48
49
50
51
52
53
54
55
56
57
58
59
60
61
62
63
64
65
66
67
68
69
70
71
72
73
74
75
76
77
78
79
80
81
82
83
84
85
86
87
88
89
90
91
92
93
94
95
96
97
98
99
100
101
102
103
104
105
106
107
108
109
110
111
112
113
114
115
116
117
118
119
120
121
122
123
124
125
126
127
128
129
130
131
132
133
134
135
136
137
138
139
140
141
142
143
144
145
146
147
148
149
150
151
152
153
154
155
156
157
158
159
160
161
162
163
164
165
166
167
168
169
170
171
172
173
174
175
176
177
178
179
180
181
182
183
184
185
186
187
188
189
190
191
192
193
194
195
196
197
198
199
200
201
202
203
204
205
206
207
208
209
210
211
212
213
214
215
216
217
218
219
220
221
222
223
224
225
226
227
228
229
230
231
232
233
234
235
236

