%nproc=8
%mem=1000MB
# rb3lyp/6-311+g** NMR geom=connectivity

Title

0 1
C    -4.0500558   -0.5771862    0.8136712
H    -5.0263804   -1.0082727    1.0024760
C    -3.9381552    0.6617804    0.2400876
H    -4.8252424    1.2338890   -0.0111295
C    -2.6768410    1.2433246    0.0057578
C    -1.4974121    0.5051527    0.2848253
C    -1.6508332   -0.7338728    0.9404026
H    -0.7713646   -1.2730967    1.2633753
C    -2.8898548   -1.2624035    1.1994307
H    -2.9683706   -2.2124563    1.7152676
C    -2.5773185    2.5963696   -0.4192930
H    -3.4870728    3.1412239   -0.6474055
C    -1.3741895    3.2147896   -0.4364030
H    -1.2997315    4.2742019   -0.6578144
C    -0.1719488    2.4994090   -0.1734588
C    -0.2043917    1.1018437    0.0192689
C     1.0513491    3.2042560   -0.0676222
H     1.0427344    4.2819499   -0.1896997
C     2.1942091    2.5487446    0.2579577
H     3.1168527    3.0912848    0.4334727
C     2.2216473    1.1336562    0.2934990
C     1.0486931    0.3945528    0.0302412
C     3.4483363    0.4614633    0.5573939
H     4.3095794    1.0606054    0.8334846
C     3.5427346   -0.8855926    0.4749463
H     4.4731467   -1.3939704    0.7038822
C     2.4490052   -1.6474447   -0.0196319
C     1.2150704   -1.0057258   -0.3013573
C     0.2531113   -1.7434440   -1.0216591
H    -0.6541356   -1.2535051   -1.3462847
C     0.4494193   -3.0628597   -1.3413779
H    -0.3083162   -3.5944309   -1.9054060
C     1.6251726   -3.7207967   -0.9552541
H     1.7670048   -4.7687404   -1.1927019
C     2.6109872   -3.0144177   -0.3183050
H     3.5525612   -3.4902813   -0.0646367
Bq        -1.3811709772     2.0843779898    -0.1002609702
Bq        -1.3829409551     2.3017915748     0.3499925142
Bq        -1.3808169816     2.0408952728    -0.1903116671
Bq        -1.3832949507     2.3452742918     0.4400432111
Bq        -1.3804629861     1.9974125558    -0.2803623640
Bq        -1.3836489462     2.3887570088     0.5300939080
Bq        -1.3801089905     1.9539298388    -0.3704130609
Bq        -1.3818789684     2.1713434238     0.0798404236
Bq        -1.3820620317     2.3048775334     0.1264087394
Bq        -1.3813540405     2.2179120994    -0.0536926544
Bq        -1.3824160272     2.3483602505     0.2164594363
Bq        -1.3810000449     2.1744293824    -0.1437433512
Bq        -1.3827700228     2.3918429675     0.3065101332
Bq        -1.3806460494     2.1309466654    -0.2337940481
Bq        -1.3831240184     2.4353256845     0.3965608301
Bq        -1.3802920538     2.0874639484    -0.3238447450
Bq        -1.3834780140     2.4788084015     0.4866115269
Bq        -1.3799380582     2.0439812314    -0.4138954419
Bq        -1.3817080361     2.2613948164     0.0363580425
Bq        -1.3818910994     2.3949289261     0.0829263584
Bq        -1.3811831082     2.3079634921    -0.0971750354
Bq        -1.3822450950     2.4384116431     0.1729770553
Bq        -1.3808291127     2.2644807751    -0.1872257323
Bq        -1.3825990905     2.4818943601     0.2630277521
Bq        -1.3804751171     2.2209980581    -0.2772764292
Bq        -1.3829530861     2.5253770771     0.3530784490
Bq        -1.3801211215     2.1775153411    -0.3673271260
Bq        -1.3833070817     2.5688597941     0.4431291459
Bq        -1.3797671259     2.1340326241    -0.4573778229
Bq        -1.3815371038     2.3514462091    -0.0071243385
Bq        -1.3817201671     2.4849803188     0.0394439773
Bq        -1.3810121760     2.3980148848    -0.1406574164
Bq        -1.3820741627     2.5284630358     0.1294946742
Bq        -1.3806581804     2.3545321678    -0.2307081133
Bq        -1.3824281583     2.5719457528     0.2195453711
Bq        -1.3803041848     2.3110494508    -0.3207588102
Bq        -1.3827821538     2.6154284698     0.3095960680
Bq        -1.3799501892     2.2675667338    -0.4108095071
Bq        -1.3831361494     2.6589111868     0.3996467649
Bq        -1.3795961937     2.2240840168    -0.5008602040
Bq        -1.3813661715     2.4414976018    -0.0506067195
Bq        -1.2902675535    -2.0175893147     2.2139561329
Bq        -1.2895595623    -2.1045547487     2.0338547391
Bq        -1.2906215491    -1.9741065977     2.3040068298
Bq        -1.2892055668    -2.1480374658     1.9438040423
Bq        -1.2909755446    -1.9306238807     2.3940575267
Bq        -1.2888515712    -2.1915201828     1.8537533454
Bq        -1.2913295402    -1.8871411637     2.4841082236
Bq        -1.2884975756    -2.2350028998     1.7637026485
Bq        -1.2916835358    -1.8436584467     2.5741589204
Bq        -1.2881435800    -2.2784856168     1.6736519516
Bq        -1.2899135579    -2.0610720317     2.1239054360
Bq        -1.2900966212    -1.9275379221     2.1704737519
Bq        -1.2893886301    -2.0145033561     1.9903723581
Bq        -1.2904506168    -1.8840552051     2.2605244488
Bq        -1.2890346345    -2.0579860731     1.9003216612
Bq        -1.2908046124    -1.8405724881     2.3505751456
Bq        -1.2886806389    -2.1014687901     1.8102709643
Bq        -1.2911586079    -1.7970897711     2.4406258425
Bq        -1.2883266433    -2.1449515071     1.7202202675
Bq        -1.2915126035    -1.7536070540     2.5306765394
Bq        -1.2879726478    -2.1884342241     1.6301695706
Bq        -1.2897426256    -1.9710206391     2.0804230550
Bq        -1.2899256889    -1.8374865294     2.1269913708
Bq        -1.2892176978    -1.9244519634     1.9468899771
Bq        -1.2902796845    -1.7940038124     2.2170420677
Bq        -1.2888637022    -1.9679346804     1.8568392802
Bq        -1.2906336801    -1.7505210954     2.3070927646
Bq        -1.2885097066    -2.0114173974     1.7667885833
Bq        -1.2909876757    -1.7070383784     2.3971434615
Bq        -1.2881557111    -2.0549001144     1.6767378864
Bq        -1.2913416712    -1.6635556614     2.4871941584
Bq        -1.2878017155    -2.0983828314     1.5866871895
Bq        -1.2895716934    -1.8809692464     2.0369406740
Bq        -1.2897547567    -1.7474351367     2.0835089898
Bq        -1.2890467655    -1.8344005707     1.9034075960
Bq        -1.2901087522    -1.7039524197     2.1735596867
Bq        -1.2886927699    -1.8778832877     1.8133568992
Bq        -1.2904627478    -1.6604697027     2.2636103836
Bq        -1.2883387744    -1.9213660047     1.7233062023
Bq        -1.2908167434    -1.6169869857     2.3536610805
Bq        -1.2879847788    -1.9648487217     1.6332555054
Bq        -1.2911707390    -1.5735042687     2.4437117773
Bq        -1.2876307832    -2.0083314388     1.5432048085
Bq        -1.2894007611    -1.7909178537     1.9934582929
Bq        -1.2895838244    -1.6573837441     2.0400266088
Bq        -1.2888758332    -1.7443491781     1.8599252150
Bq        -1.2899378200    -1.6139010270     2.1300773057
Bq        -1.2885218377    -1.7878318951     1.7698745181
Bq        -1.2902918155    -1.5704183100     2.2201280025
Bq        -1.2881678421    -1.8313146121     1.6798238212
Bq        -1.2906458111    -1.5269355930     2.3101786994
Bq        -1.2878138465    -1.8747973291     1.5897731244
Bq        -1.2909998067    -1.4834528760     2.4002293963
Bq        -1.2874598510    -1.9182800461     1.4997224275
Bq        -1.2892298288    -1.7008664611     1.9499759119
Bq        -1.2894128921    -1.5673323514     1.9965442277
Bq        -1.2887049010    -1.6542977854     1.8164428340
Bq        -1.2897668877    -1.5238496344     2.0865949246
Bq        -1.2883509054    -1.6977805024     1.7263921371
Bq        -1.2901208833    -1.4803669174     2.1766456215
Bq        -1.2879969098    -1.7412632194     1.6363414402
Bq        -1.2904748788    -1.4368842004     2.2666963184
Bq        -1.2876429143    -1.7847459364     1.5462907433
Bq        -1.2908288744    -1.3934014834     2.3567470153
Bq        -1.2872889187    -1.8282286534     1.4562400464
Bq        -1.2890588965    -1.6108150684     1.9064935309
Bq        -1.2892419598    -1.4772809587     1.9530618467
Bq        -1.2885339687    -1.5642463927     1.7729604529
Bq        -1.2895959554    -1.4337982417     2.0431125436
Bq        -1.2881799731    -1.6077291097     1.6829097561
Bq        -1.2899499510    -1.3903155247     2.1331632405
Bq        -1.2878259776    -1.6512118267     1.5928590592
Bq        -1.2903039466    -1.3468328077     2.2232139374
Bq        -1.2874719820    -1.6946945437     1.5028083623
Bq        -1.2906579421    -1.3033500907     2.3132646342
Bq        -1.2871179864    -1.7381772607     1.4127576654
Bq        -1.2888879643    -1.5207636757     1.8630111498
Bq        -1.2890710276    -1.3872295660     1.9095794657
Bq        -1.2883630364    -1.4741950001     1.7294780719
Bq        -1.2894250231    -1.3437468490     1.9996301626
Bq        -1.2880090409    -1.5176777171     1.6394273750
Bq        -1.2897790187    -1.3002641320     2.0896808594
Bq        -1.2876550453    -1.5611604341     1.5493766781
Bq        -1.2901330143    -1.2567814150     2.1797315563
Bq        -1.2873010497    -1.6046431511     1.4593259813
Bq        -1.2904870099    -1.2132986980     2.2697822532
Bq        -1.2869470541    -1.6481258681     1.3692752844
Bq        -1.2887170320    -1.4307122830     1.8195287688
Bq        -1.2889000953    -1.2971781734     1.8660970846
Bq        -1.2881921042    -1.3841436074     1.6859956909
Bq        -1.2892540909    -1.2536954564     1.9561477815
Bq        -1.2878381086    -1.4276263244     1.5959449940
Bq        -1.2896080864    -1.2102127394     2.0461984784
Bq        -1.2874841130    -1.4711090414     1.5058942971
Bq        -1.2899620820    -1.1667300224     2.1362491753
Bq        -1.2871301174    -1.5145917584     1.4158436002
Bq        -1.2903160776    -1.1232473054     2.2262998722
Bq        -1.2867761219    -1.5580744754     1.3257929034
Bq        -1.2885460997    -1.3406608904     1.7760463878
Bq        -1.2887291630    -1.2071267807     1.8226147036
Bq        -1.2880211719    -1.2940922147     1.6425133098
Bq        -1.2890831586    -1.1636440637     1.9126654005
Bq        -1.2876671763    -1.3375749317     1.5524626130
Bq        -1.2894371542    -1.1201613467     2.0027160974
Bq        -1.2873131807    -1.3810576487     1.4624119161
Bq        -1.2897911497    -1.0766786297     2.0927667943
Bq        -1.2869591852    -1.4245403657     1.3723612192
Bq        -1.2901451453    -1.0331959127     2.1828174911
Bq        -1.2866051896    -1.4680230827     1.2823105223
Bq        -1.2883751674    -1.2506094977     1.7325640067
Bq        -1.2885582307    -1.1170753880     1.7791323226
Bq        -1.2878502396    -1.2040408220     1.5990309288
Bq        -1.2889122263    -1.0735926710     1.8691830195
Bq        -1.2874962440    -1.2475235390     1.5089802319
Bq        -1.2892662219    -1.0301099540     1.9592337163
Bq        -1.2871422485    -1.2910062560     1.4189295351
Bq        -1.2896202175    -0.9866272370     2.0492844132
Bq        -1.2867882529    -1.3344889731     1.3288788382
Bq        -1.2899742130    -0.9431445200     2.1393351101
Bq        -1.2864342573    -1.3779716901     1.2388281413
Bq        -1.2882042352    -1.1605581050     1.6890816257
Bq        -1.2883872985    -1.0270239954     1.7356499415
Bq        -1.2876793073    -1.1139894294     1.5555485478
Bq        -1.2887412940    -0.9835412784     1.8257006384
Bq        -1.2873253118    -1.1574721464     1.4654978509
Bq        -1.2890952896    -0.9400585614     1.9157513353
Bq        -1.2869713162    -1.2009548634     1.3754471540
Bq        -1.2894492852    -0.8965758443     2.0058020322
Bq        -1.2866173206    -1.2444375804     1.2853964571
Bq        -1.2898032808    -0.8530931273     2.0958527291
Bq        -1.2862633250    -1.2879202974     1.1953457603
Bq        -1.2880333029    -1.0705067124     1.6455992447
Bq        -1.2882163662    -0.9369726027     1.6921675605
Bq        -1.2875083751    -1.0239380367     1.5120661668
Bq        -1.2885703618    -0.8934898857     1.7822182574
Bq        -1.2871543795    -1.0674207537     1.4220154699
Bq        -1.2889243573    -0.8500071687     1.8722689543
Bq        -1.2868003839    -1.1109034707     1.3319647730
Bq        -1.2892783529    -0.8065244517     1.9623196512
Bq        -1.2864463883    -1.1543861877     1.2419140761
Bq        -1.2896323485    -0.7630417347     2.0523703480
Bq        -1.2860923928    -1.1978689047     1.1518633792
Bq        -1.2878623706    -0.9804553197     1.6021168636
Bq        -1.2880454339    -0.8469212100     1.6486851795
Bq        -1.2873374428    -0.9338866440     1.4685837857
Bq        -1.2883994295    -0.8034384930     1.7387358764
Bq        -1.2869834472    -0.9773693610     1.3785330888
Bq        -1.2887534251    -0.7599557760     1.8287865732
Bq        -1.2866294516    -1.0208520780     1.2884823920
Bq        -1.2891074206    -0.7164730590     1.9188372701
Bq        -1.2862754561    -1.0643347950     1.1984316951
Bq        -1.2894614162    -0.6729903420     2.0088879670
Bq        -1.2859214605    -1.1078175120     1.1083809982
Bq        -1.2876914384    -0.8904039270     1.5586344826
Bq        -1.2878745017    -0.7568698173     1.6052027985
Bq        -1.2871665105    -0.8438352514     1.4251014047
Bq        -1.2882284972    -0.7133871003     1.6952534953
Bq        -1.2868125149    -0.8873179684     1.3350507078
Bq        -1.2885824928    -0.6699043833     1.7853041922

1
2
3
4
5
6
7
8
9
10
11
12
13
14
15
16
17
18
19
20
21
22
23
24
25
26
27
28
29
30
31
32
33
34
35
36
37
38
39
40
41
42
43
44
45
46
47
48
49
50
51
52
53
54
55
56
57
58
59
60
61
62
63
64
65
66
67
68
69
70
71
72
73
74
75
76
77
78
79
80
81
82
83
84
85
86
87
88
89
90
91
92
93
94
95
96
97
98
99
100
101
102
103
104
105
106
107
108
109
110
111
112
113
114
115
116
117
118
119
120
121
122
123
124
125
126
127
128
129
130
131
132
133
134
135
136
137
138
139
140
141
142
143
144
145
146
147
148
149
150
151
152
153
154
155
156
157
158
159
160
161
162
163
164
165
166
167
168
169
170
171
172
173
174
175
176
177
178
179
180
181
182
183
184
185
186
187
188
189
190
191
192
193
194
195
196
197
198
199
200
201
202
203
204
205
206
207
208
209
210
211
212
213
214
215
216
217
218
219
220
221
222
223
224
225
226
227
228
229
230
231
232
233
234
235
236

