%nproc=8
%mem=1000MB
# rb3lyp/6-311+g** NMR geom=connectivity

Title

0 1
C    -4.0500558   -0.5771862    0.8136712
H    -5.0263804   -1.0082727    1.0024760
C    -3.9381552    0.6617804    0.2400876
H    -4.8252424    1.2338890   -0.0111295
C    -2.6768410    1.2433246    0.0057578
C    -1.4974121    0.5051527    0.2848253
C    -1.6508332   -0.7338728    0.9404026
H    -0.7713646   -1.2730967    1.2633753
C    -2.8898548   -1.2624035    1.1994307
H    -2.9683706   -2.2124563    1.7152676
C    -2.5773185    2.5963696   -0.4192930
H    -3.4870728    3.1412239   -0.6474055
C    -1.3741895    3.2147896   -0.4364030
H    -1.2997315    4.2742019   -0.6578144
C    -0.1719488    2.4994090   -0.1734588
C    -0.2043917    1.1018437    0.0192689
C     1.0513491    3.2042560   -0.0676222
H     1.0427344    4.2819499   -0.1896997
C     2.1942091    2.5487446    0.2579577
H     3.1168527    3.0912848    0.4334727
C     2.2216473    1.1336562    0.2934990
C     1.0486931    0.3945528    0.0302412
C     3.4483363    0.4614633    0.5573939
H     4.3095794    1.0606054    0.8334846
C     3.5427346   -0.8855926    0.4749463
H     4.4731467   -1.3939704    0.7038822
C     2.4490052   -1.6474447   -0.0196319
C     1.2150704   -1.0057258   -0.3013573
C     0.2531113   -1.7434440   -1.0216591
H    -0.6541356   -1.2535051   -1.3462847
C     0.4494193   -3.0628597   -1.3413779
H    -0.3083162   -3.5944309   -1.9054060
C     1.6251726   -3.7207967   -0.9552541
H     1.7670048   -4.7687404   -1.1927019
C     2.6109872   -3.0144177   -0.3183050
H     3.5525612   -3.4902813   -0.0646367
Bq        -1.3673402722    -0.2945625449     1.1508458467
Bq        -1.3519723469    -0.3927598144     0.7633911744
Bq        -1.3711822535    -0.2700132275     1.2477095148
Bq        -1.3481303655    -0.4173091318     0.6665275063
Bq        -1.3750242348    -0.2454639102     1.3445731829
Bq        -1.3442883842    -0.4418584492     0.5696638382
Bq        -1.3788662162    -0.2209145928     1.4414368510
Bq        -1.3404464029    -0.4664077665     0.4728001701
Bq        -1.3596563095    -0.3436611797     0.9571185106
Bq        -1.3625253366    -0.2221720303     1.0294521492
Bq        -1.3548413740    -0.2712706651     0.8357248130
Bq        -1.3663673180    -0.1976227130     1.1263158173
Bq        -1.3509993926    -0.2958199825     0.7388611450
Bq        -1.3702092993    -0.1730733956     1.2231794854
Bq        -1.3471574113    -0.3203692998     0.6419974769
Bq        -1.3740512806    -0.1485240782     1.3200431535
Bq        -1.3433154300    -0.3449186172     0.5451338088
Bq        -1.3778932620    -0.1239747608     1.4169068216
Bq        -1.3394734487    -0.3694679346     0.4482701407
Bq        -1.3586833553    -0.2467213477     0.9325884811
Bq        -1.3615523824    -0.1252321984     1.0049221198
Bq        -1.3538684198    -0.1743308332     0.8111947836
Bq        -1.3653943637    -0.1006828810     1.1017857879
Bq        -1.3500264384    -0.1988801505     0.7143311155
Bq        -1.3692363451    -0.0761335637     1.1986494560
Bq        -1.3461844571    -0.2234294679     0.6174674474
Bq        -1.3730783264    -0.0515842463     1.2955131241
Bq        -1.3423424758    -0.2479787853     0.5206037794
Bq        -1.3769203077    -0.0270349289     1.3923767922
Bq        -1.3385004944    -0.2725281027     0.4237401113
Bq        -1.3577104011    -0.1497815158     0.9080584517
Bq        -1.3605794282    -0.0282923665     0.9803920904
Bq        -1.3528954655    -0.0773910012     0.7866647542
Bq        -1.3644214095    -0.0037430491     1.0772557585
Bq        -1.3490534842    -0.1019403186     0.6898010861
Bq        -1.3682633908     0.0208062683     1.1741194266
Bq        -1.3452115029    -0.1264896360     0.5929374180
Bq        -1.3721053722     0.0453555857     1.2709830946
Bq        -1.3413695215    -0.1510389533     0.4960737499
Bq        -1.3759473535     0.0699049030     1.3678467627
Bq        -1.3375275402    -0.1755882707     0.3992100818
Bq        -1.3567374469    -0.0528416838     0.8835284223
Bq        -1.3596064740     0.0686474655     0.9558620609
Bq        -1.3519225113     0.0195488307     0.7621347248
Bq        -1.3634484553     0.0931967828     1.0527257290
Bq        -1.3480805300    -0.0050004867     0.6652710567
Bq        -1.3672904366     0.1177461002     1.1495893971
Bq        -1.3442385486    -0.0295498040     0.5684073886
Bq        -1.3711324180     0.1422954176     1.2464530652
Bq        -1.3403965673    -0.0540991214     0.4715437205
Bq        -1.3749743993     0.1668447350     1.3433167333
Bq        -1.3365545860    -0.0786484388     0.3746800524
Bq        -1.3557644926     0.0440981481     0.8589983929
Bq        -1.3586335197     0.1655872974     0.9313320315
Bq        -1.3509495571     0.1164886627     0.7376046953
Bq        -1.3624755011     0.1901366148     1.0281956996
Bq        -1.3471075758     0.0919393453     0.6407410272
Bq        -1.3663174824     0.2146859322     1.1250593677
Bq        -1.3432655944     0.0673900279     0.5438773592
Bq        -1.3701594637     0.2392352495     1.2219230358
Bq        -1.3394236131     0.0428407105     0.4470136911
Bq        -1.3740014451     0.2637845669     1.3187867039
Bq        -1.3355816318     0.0182913932     0.3501500230
Bq        -1.3547915384     0.1410379800     0.8344683634
Bq        -1.3576605655     0.2625271294     0.9068020021
Bq        -1.3499766029     0.2134284946     0.7130746659
Bq        -1.3615025468     0.2870764467     1.0036656702
Bq        -1.3461346215     0.1888791772     0.6162109978
Bq        -1.3653445282     0.3116257641     1.1005293383
Bq        -1.3422926402     0.1643298598     0.5193473297
Bq        -1.3691865095     0.3361750815     1.1973930064
Bq        -1.3384506589     0.1397805425     0.4224836616
Bq        -1.3730284908     0.3607243989     1.2942566745
Bq        -1.3346086775     0.1152312251     0.3256199936
Bq        -1.3538185842     0.2379778120     0.8099383340
Bq        -1.3566876113     0.3594669613     0.8822719727
Bq        -1.3490036486     0.3103683265     0.6885446365
Bq        -1.3605295926     0.3840162787     0.9791356408
Bq        -1.3451616673     0.2858190092     0.5916809684
Bq        -1.3643715739     0.4085655960     1.0759993088
Bq        -1.3413196860     0.2612696918     0.4948173003
Bq        -1.3682135553     0.4331149134     1.1728629769
Bq        -1.3374777046     0.2367203744     0.3979536322
Bq        -1.3720555366     0.4576642308     1.2697266450
Bq        -1.3336357233     0.2121710570     0.3010899641
Bq        -1.3528456300     0.3349176439     0.7854083046
Bq        -1.3557146571     0.4564067932     0.8577419432
Bq        -1.3480306944     0.4073081585     0.6640146071
Bq        -1.3595566384     0.4809561106     0.9546056113
Bq        -1.3441887131     0.3827588411     0.5671509390
Bq        -1.3633986197     0.5055054280     1.0514692794
Bq        -1.3403467317     0.3582095237     0.4702872709
Bq        -1.3672406011     0.5300547454     1.1483329475
Bq        -1.3365047504     0.3336602064     0.3734236028
Bq        -1.3710825824     0.5546040627     1.2451966156
Bq        -1.3326627691     0.3091108890     0.2765599347
Bq        -1.3518726757     0.4318574759     0.7608782751
Bq        -1.3547417028     0.5533466252     0.8332119138
Bq        -1.3470577402     0.5042479904     0.6394845776
Bq        -1.3585836842     0.5778959425     0.9300755819
Bq        -1.3432157589     0.4796986730     0.5426209095
Bq        -1.3624256655     0.6024452599     1.0269392500
Bq        -1.3393737775     0.4551493557     0.4457572415
Bq        -1.3662676468     0.6269945773     1.1238029181
Bq        -1.3355317962     0.4306000383     0.3488935734
Bq        -1.3701096282     0.6515438947     1.2206665862
Bq        -1.3316898149     0.4060507209     0.2520299053
Bq        -1.3508997215     0.5287973078     0.7363482457
Bq        -1.3537687486     0.6502864571     0.8086818844
Bq        -1.3460847860     0.6011878224     0.6149545482
Bq        -1.3576107299     0.6748357745     0.9055455525
Bq        -1.3422428046     0.5766385050     0.5180908801
Bq        -1.3614527113     0.6993850919     1.0024092206
Bq        -1.3384008233     0.5520891876     0.4212272120
Bq        -1.3652946926     0.7239344092     1.0992728887
Bq        -1.3345588420     0.5275398702     0.3243635439
Bq        -1.3691366739     0.7484837266     1.1961365567
Bq        -1.3307168606     0.5029905529     0.2274998758
Bq        -1.3499267673     0.6257371397     0.7118182163
Bq        -1.3527957944     0.7472262890     0.7841518550
Bq        -1.3451118317     0.6981276543     0.5904245188
Bq        -1.3566377757     0.7717756064     0.8810155230
Bq        -1.3412698504     0.6735783369     0.4935608507
Bq        -1.3604797571     0.7963249238     0.9778791911
Bq        -1.3374278691     0.6490290195     0.3966971826
Bq        -1.3643217384     0.8208742412     1.0747428592
Bq        -1.3335858877     0.6244797022     0.2998335145
Bq        -1.3681637197     0.8454235585     1.1716065273
Bq        -1.3297439064     0.5999303848     0.2029698464
Bq        -1.3489538131     0.7226769717     0.6872881869
Bq        -1.3518228402     0.8441661210     0.7596218255
Bq        -1.3441388775     0.7950674862     0.5658944893
Bq        -1.3556648215     0.8687154384     0.8564854936
Bq        -1.3402968962     0.7705181689     0.4690308213
Bq        -1.3595068028     0.8932647557     0.9533491617
Bq        -1.3364549149     0.7459688515     0.3721671532
Bq        -1.3633487842     0.9178140731     1.0502128298
Bq        -1.3326129335     0.7214195341     0.2753034851
Bq        -1.3671907655     0.9423633905     1.1470764979
Bq        -1.3287709522     0.6968702167     0.1784398170
Bq        -1.3479808588     0.8196168036     0.6627581574
Bq        -1.3508498859     0.9411059529     0.7350917961
Bq        -1.3431659233     0.8920073182     0.5413644599
Bq        -1.3546918673     0.9656552703     0.8319554642
Bq        -1.3393239420     0.8674580008     0.4445007918
Bq        -1.3585338486     0.9902045877     0.9288191323
Bq        -1.3354819606     0.8429086834     0.3476371237
Bq        -1.3623758299     1.0147539051     1.0256828004
Bq        -1.3316399793     0.8183593660     0.2507734557
Bq        -1.3662178113     1.0393032224     1.1225464685
Bq        -1.3277979980     0.7938100487     0.1539097876
Bq        -1.3470079046     0.9165566355     0.6382281280
Bq        -1.3498769317     1.0380457849     0.7105617667
Bq        -1.3421929691     0.9889471501     0.5168344305
Bq        -1.3537189130     1.0625951022     0.8074254348
Bq        -1.3383509877     0.9643978327     0.4199707624
Bq        -1.3575608944     1.0871444196     0.9042891029
Bq        -1.3345090064     0.9398485154     0.3231070943
Bq        -1.3614028757     1.1116937370     1.0011527709
Bq        -1.3306670251     0.9152991980     0.2262434262
Bq        -1.3652448570     1.1362430544     1.0980164390
Bq        -1.3268250437     0.8907498806     0.1293797581
Bq        -1.3460349504     1.0134964675     0.6136980986
Bq        -1.3489039775     1.1349856168     0.6860317372
Bq        -1.3412200148     1.0858869821     0.4923044011
Bq        -1.3527459588     1.1595349342     0.7828954053
Bq        -1.3373780335     1.0613376647     0.3954407330
Bq        -1.3565879402     1.1840842516     0.8797590734
Bq        -1.3335360522     1.0367883473     0.2985770649
Bq        -1.3604299215     1.2086335689     0.9766227415
Bq        -1.3296940708     1.0122390299     0.2017133968
Bq        -1.3642719028     1.2331828863     1.0734864096
Bq        -1.3258520895     0.9876897125     0.1048497287
Bq        -1.3450619962     1.1104362994     0.5891680692
Bq        -1.3479310233     1.2319254487     0.6615017078
Bq        -1.3402470606     1.1828268140     0.4677743716
Bq        -1.3517730046     1.2564747661     0.7583653759
Bq        -1.3364050793     1.1582774966     0.3709107036
Bq        -1.3556149859     1.2810240835     0.8552290440
Bq        -1.3325630980     1.1337281792     0.2740470355
Bq        -1.3594569673     1.3055734009     0.9520927121
Bq        -1.3287211166     1.1091788619     0.1771833674
Bq        -1.3632989486     1.3301227182     1.0489563802
Bq        -1.3248791353     1.0846295445     0.0803196993
Bq        -1.3440890419     1.2073761314     0.5646380397
Bq        -1.3469580690     1.3288652807     0.6369716784
Bq        -1.3392741064     1.2797666459     0.4432443422
Bq        -1.3508000504     1.3534145981     0.7338353465
Bq        -1.3354321251     1.2552173286     0.3463806741
Bq        -1.3546420317     1.3779639154     0.8306990146
Bq        -1.3315901437     1.2306680112     0.2495170060
Bq        -1.3584840130     1.4025132328     0.9275626827
Bq        -1.3277481624     1.2061186938     0.1526533379
Bq        -1.3623259944     1.4270625502     1.0244263508
Bq        -1.3239061811     1.1815693764     0.0557896699
Bq        -1.3431160877     1.3043159633     0.5401080103
Bq        -1.3459851148     1.4258051126     0.6124416490
Bq        -1.3383011522     1.3767064779     0.4187143128
Bq        -1.3498270962     1.4503544300     0.7093053171
Bq        -1.3344591708     1.3521571605     0.3218506447

1
2
3
4
5
6
7
8
9
10
11
12
13
14
15
16
17
18
19
20
21
22
23
24
25
26
27
28
29
30
31
32
33
34
35
36
37
38
39
40
41
42
43
44
45
46
47
48
49
50
51
52
53
54
55
56
57
58
59
60
61
62
63
64
65
66
67
68
69
70
71
72
73
74
75
76
77
78
79
80
81
82
83
84
85
86
87
88
89
90
91
92
93
94
95
96
97
98
99
100
101
102
103
104
105
106
107
108
109
110
111
112
113
114
115
116
117
118
119
120
121
122
123
124
125
126
127
128
129
130
131
132
133
134
135
136
137
138
139
140
141
142
143
144
145
146
147
148
149
150
151
152
153
154
155
156
157
158
159
160
161
162
163
164
165
166
167
168
169
170
171
172
173
174
175
176
177
178
179
180
181
182
183
184
185
186
187
188
189
190
191
192
193
194
195
196
197
198
199
200
201
202
203
204
205
206
207
208
209
210
211
212
213
214
215
216
217
218
219
220
221
222
223
224
225
226
227
228
229
230
231
232
233
234
235
236

