%nproc=8
%mem=1000MB
# rb3lyp/6-311+g** NMR geom=connectivity

Title

0 1
C    -4.0500558   -0.5771862    0.8136712
H    -5.0263804   -1.0082727    1.0024760
C    -3.9381552    0.6617804    0.2400876
H    -4.8252424    1.2338890   -0.0111295
C    -2.6768410    1.2433246    0.0057578
C    -1.4974121    0.5051527    0.2848253
C    -1.6508332   -0.7338728    0.9404026
H    -0.7713646   -1.2730967    1.2633753
C    -2.8898548   -1.2624035    1.1994307
H    -2.9683706   -2.2124563    1.7152676
C    -2.5773185    2.5963696   -0.4192930
H    -3.4870728    3.1412239   -0.6474055
C    -1.3741895    3.2147896   -0.4364030
H    -1.2997315    4.2742019   -0.6578144
C    -0.1719488    2.4994090   -0.1734588
C    -0.2043917    1.1018437    0.0192689
C     1.0513491    3.2042560   -0.0676222
H     1.0427344    4.2819499   -0.1896997
C     2.1942091    2.5487446    0.2579577
H     3.1168527    3.0912848    0.4334727
C     2.2216473    1.1336562    0.2934990
C     1.0486931    0.3945528    0.0302412
C     3.4483363    0.4614633    0.5573939
H     4.3095794    1.0606054    0.8334846
C     3.5427346   -0.8855926    0.4749463
H     4.4731467   -1.3939704    0.7038822
C     2.4490052   -1.6474447   -0.0196319
C     1.2150704   -1.0057258   -0.3013573
C     0.2531113   -1.7434440   -1.0216591
H    -0.6541356   -1.2535051   -1.3462847
C     0.4494193   -3.0628597   -1.3413779
H    -0.3083162   -3.5944309   -1.9054060
C     1.6251726   -3.7207967   -0.9552541
H     1.7670048   -4.7687404   -1.1927019
C     2.6109872   -3.0144177   -0.3183050
H     3.5525612   -3.4902813   -0.0646367
Bq         0.5502484427     1.7919994567     0.2112267885
Bq         0.3704963924     1.6924058435     0.8803832072
Bq         0.5759273070     1.8062271157     0.1156330144
Bq         0.3448175281     1.6781781845     0.9759769813
Bq         0.6016061713     1.8204547748     0.0200392403
Bq         0.4732118497     1.7493164796     0.4980081108
Bq         0.4438419348     1.8340715146     0.6073424245
Bq         0.4951996635     1.8625268327     0.4161548763
Bq         0.4181630705     1.8198438556     0.7029361985
Bq         0.5208785278     1.8767544917     0.3205611022
Bq         0.3924842062     1.8056161966     0.7985299726
Bq         0.5465573921     1.8909821507     0.2249673281
Bq         0.3668053419     1.7913885375     0.8941237467
Bq         0.5722362564     1.9052098098     0.1293735540
Bq         0.3411264775     1.7771608785     0.9897175208
Bq         0.5979151208     1.9194374688     0.0337797799
Bq         0.4695207992     1.8482991736     0.5117486504
Bq         0.4401508843     1.9330542087     0.6210829640
Bq         0.4915086129     1.9615095267     0.4298954158
Bq         0.4144720200     1.9188265496     0.7166767381
Bq         0.5171874773     1.9757371857     0.3343016417
Bq         0.3887931556     1.9045988906     0.8122705122
Bq         0.5428663416     1.9899648448     0.2387078676
Bq         0.3631142913     1.8903712316     0.9078642863
Bq         0.5685452059     2.0041925038     0.1431140935
Bq         0.3374354270     1.8761435725     1.0034580604
Bq         0.5942240702     2.0184201628     0.0475203194
Bq         0.4658297486     1.9472818677     0.5254891899
Bq         0.4364598338     2.0320369027     0.6348235036
Bq         0.4878175624     2.0604922207     0.4436359554
Bq         0.4107809694     2.0178092437     0.7304172777
Bq         0.5134964267     2.0747198798     0.3480421813
Bq         0.3851021051     2.0035815846     0.8260110518
Bq         0.5391752910     2.0889475388     0.2524484072
Bq         0.3594232408     1.9893539256     0.9216048259
Bq         0.5648541554     2.1031751978     0.1568546331
Bq         0.3337443765     1.9751262666     1.0171985999
Bq         0.5905330197     2.1174028569     0.0612608590
Bq         0.4621386981     2.0462645617     0.5392297295
Bq         0.4327687832     2.1310195967     0.6485640431
Bq         0.4841265119     2.1594749148     0.4573764949
Bq         0.4070899189     2.1167919377     0.7441578172
Bq         0.5098053762     2.1737025738     0.3617827208
Bq         0.3814110546     2.1025642787     0.8397515913
Bq         0.5354842405     2.1879302328     0.2661889467
Bq         0.3557321903     2.0883366196     0.9353453654
Bq         0.5611631048     2.2021578919     0.1705951727
Bq         0.3300533259     2.0741089606     1.0309391395
Bq         0.5868419692     2.2163855509     0.0750013986
Bq         0.4584476475     2.1452472558     0.5529702690
Bq         0.7138975600    -2.8181151051    -0.0125201530
Bq         0.7652552887    -2.7896597870    -0.2037077012
Bq         0.6882186957    -2.8323427641     0.0830736211
Bq         0.7909341530    -2.7754321280    -0.2993014753
Bq         0.6625398314    -2.8465704231     0.1786673952
Bq         0.8166130173    -2.7612044690    -0.3948952494
Bq         0.6368609671    -2.8607980821     0.2742611693
Bq         0.8422918817    -2.7469768099    -0.4904890235
Bq         0.6111821027    -2.8750257412     0.3698549434
Bq         0.8679707460    -2.7327491509    -0.5860827976
Bq         0.7395764244    -2.8038874460    -0.1081139271
Bq         0.7102065095    -2.7191324110     0.0012203865
Bq         0.7615642381    -2.6906770930    -0.1899671617
Bq         0.6845276452    -2.7333600701     0.0968141606
Bq         0.7872431025    -2.6764494339    -0.2855609358
Bq         0.6588487809    -2.7475877291     0.1924079347
Bq         0.8129219668    -2.6622217749    -0.3811547098
Bq         0.6331699165    -2.7618153881     0.2880017088
Bq         0.8386008311    -2.6479941159    -0.4767484839
Bq         0.6074910522    -2.7760430471     0.3835954829
Bq         0.8642796954    -2.6337664569    -0.5723422580
Bq         0.7358853738    -2.7049047520    -0.0943733876
Bq         0.7065154590    -2.6201497170     0.0149609261
Bq         0.7578731876    -2.5916943989    -0.1762266221
Bq         0.6808365946    -2.6343773760     0.1105547002
Bq         0.7835520519    -2.5774667399    -0.2718203962
Bq         0.6551577303    -2.6486050350     0.2061484743
Bq         0.8092309163    -2.5632390809    -0.3674141703
Bq         0.6294788660    -2.6628326941     0.3017422484
Bq         0.8349097806    -2.5490114219    -0.4630079444
Bq         0.6038000017    -2.6770603531     0.3973360225
Bq         0.8605886449    -2.5347837628    -0.5586017185
Bq         0.7321943233    -2.6059220580    -0.0806328480
Bq         0.7028244084    -2.5211670230     0.0287014656
Bq         0.7541821371    -2.4927117049    -0.1624860825
Bq         0.6771455441    -2.5353946820     0.1242952397
Bq         0.7798610014    -2.4784840459    -0.2580798566
Bq         0.6514666798    -2.5496223410     0.2198890138
Bq         0.8055398657    -2.4642563868    -0.3536736307
Bq         0.6257878155    -2.5638500000     0.3154827879
Bq         0.8312187300    -2.4500287278    -0.4492674048
Bq         0.6001089511    -2.5780776591     0.4110765620
Bq         0.8568975944    -2.4358010688    -0.5448611789
Bq         0.7285032728    -2.5069393639    -0.0668923084
Bq         0.6991333579    -2.4221843289     0.0424420052
Bq         0.7504910865    -2.3937290109    -0.1487455430
Bq         0.6734544936    -2.4364119879     0.1380357793
Bq         0.7761699509    -2.3795013518    -0.2443393171
Bq         0.6477756293    -2.4506396470     0.2336295534
Bq         0.8018488152    -2.3652736928    -0.3399330912
Bq         0.6220967649    -2.4648673060     0.3292233275
Bq         0.8275276795    -2.3510460338    -0.4355268653
Bq         0.5964179006    -2.4790949650     0.4248171016
Bq         0.8532065438    -2.3368183748    -0.5311206394
Bq         0.7248122222    -2.4079566699    -0.0531517689
Bq         0.6954423074    -2.3232016349     0.0561825448
Bq         0.7468000360    -2.2947463168    -0.1350050034
Bq         0.6697634430    -2.3374292939     0.1517763189
Bq         0.7724789003    -2.2805186578    -0.2305987775
Bq         0.6440845787    -2.3516569529     0.2473700930
Bq         0.7981577647    -2.2662909988    -0.3261925516
Bq         0.6184057144    -2.3658846120     0.3429638671
Bq         0.8238366290    -2.2520633397    -0.4217863257
Bq         0.5927268501    -2.3801122710     0.4385576411
Bq         0.8495154933    -2.2378356807    -0.5173800998
Bq         0.7211211717    -2.3089739759    -0.0394112293
Bq         0.6917512568    -2.2242189408     0.0699230843
Bq         0.7431089855    -2.1957636228    -0.1212644639
Bq         0.6660723925    -2.2384465999     0.1655168584
Bq         0.7687878498    -2.1815359638    -0.2168582380
Bq         0.6403935282    -2.2526742589     0.2611106325
Bq         0.7944667141    -2.1673083047    -0.3124520121
Bq         0.6147146639    -2.2669019179     0.3567044066
Bq         0.8201455784    -2.1530806457    -0.4080457861
Bq         0.5890357995    -2.2811295770     0.4522981807
Bq         0.8458244428    -2.1388529867    -0.5036395602
Bq         0.7174301211    -2.2099912818    -0.0256706898
Bq         0.6880602063    -2.1252362468     0.0836636239
Bq         0.7394179349    -2.0967809288    -0.1075239243
Bq         0.6623813420    -2.1394639058     0.1792573980
Bq         0.7650967993    -2.0825532697    -0.2031176984
Bq         0.6367024776    -2.1536915649     0.2748511721
Bq         0.7907756636    -2.0683256107    -0.2987114725
Bq         0.6110236133    -2.1679192239     0.3704449462
Bq         0.8164545279    -2.0540979517    -0.3943052466
Bq         0.5853447490    -2.1821468829     0.4660387203
Bq         0.8421333922    -2.0398702926    -0.4898990207
Bq         0.7137390706    -2.1110085878    -0.0119301502
Bq         0.6843691558    -2.0262535528     0.0974041634
Bq         0.7357268844    -1.9977982347    -0.0937833847
Bq         0.6586902914    -2.0404812118     0.1929979375
Bq         0.7614057487    -1.9835705757    -0.1893771588
Bq         0.6330114271    -2.0547088708     0.2885917116
Bq         0.7870846130    -1.9693429167    -0.2849709329
Bq         0.6073325628    -2.0689365299     0.3841854857
Bq         0.8127634774    -1.9551152576    -0.3805647070
Bq         0.5816536985    -2.0831641889     0.4797792598
Bq         0.8384423417    -1.9408875986    -0.4761584811
Bq         0.7100480201    -2.0120258937     0.0018103893
Bq         0.6806781052    -1.9272708587     0.1111447030
Bq         0.7320358339    -1.8988155407    -0.0800428452
Bq         0.6549992409    -1.9414985178     0.2067384771
Bq         0.7577146982    -1.8845878817    -0.1756366193
Bq         0.6293203766    -1.9557261768     0.3023322512
Bq         0.7833935625    -1.8703602226    -0.2712303934
Bq         0.6036415123    -1.9699538358     0.3979260253
Bq         0.8090724268    -1.8561325636    -0.3668241675
Bq         0.5779626479    -1.9841814949     0.4935197994
Bq         0.8347512912    -1.8419049046    -0.4624179416
Bq         0.7063569695    -1.9130431997     0.0155509289
Bq         0.6769870547    -1.8282881647     0.1248852426
Bq         0.7283447833    -1.7998328466    -0.0663023056
Bq         0.6513081904    -1.8425158237     0.2204790167
Bq         0.7540236477    -1.7856051876    -0.1618960797
Bq         0.6256293260    -1.8567434828     0.3160727908
Bq         0.7797025120    -1.7713775286    -0.2574898538
Bq         0.5999504617    -1.8709711418     0.4116665648
Bq         0.8053813763    -1.7571498696    -0.3530836279
Bq         0.5742715974    -1.8851988008     0.5072603389
Bq         0.8310602406    -1.7429222105    -0.4486774020
Bq         0.7026659190    -1.8140605057     0.0292914685
Bq         0.6732960041    -1.7293054707     0.1386257821
Bq         0.7246537328    -1.7008501526    -0.0525617661
Bq         0.6476171398    -1.7435331297     0.2342195562
Bq         0.7503325971    -1.6866224936    -0.1481555402
Bq         0.6219382755    -1.7577607887     0.3298133303
Bq         0.7760114614    -1.6723948346    -0.2437493143
Bq         0.5962594112    -1.7719884478     0.4254071044
Bq         0.8016903258    -1.6581671755    -0.3393430884
Bq         0.5705805469    -1.7862161068     0.5210008785
Bq         0.8273691901    -1.6439395165    -0.4349368624
Bq         0.6989748685    -1.7150778116     0.0430320080
Bq         0.6696049536    -1.6303227766     0.1523663217
Bq         0.7209626823    -1.6018674586    -0.0388212265
Bq         0.6439260893    -1.6445504357     0.2479600958
Bq         0.7466415466    -1.5876397995    -0.1344150006
Bq         0.6182472250    -1.6587780947     0.3435538699
Bq         0.7723204109    -1.5734121405    -0.2300087747
Bq         0.5925683606    -1.6730057537     0.4391476440
Bq         0.7979992752    -1.5591844815    -0.3256025488
Bq         0.5668894963    -1.6872334127     0.5347414181
Bq         0.8236781395    -1.5449568225    -0.4211963229
Bq         0.6952838179    -1.6160951176     0.0567725476
Bq         0.6659139031    -1.5313400826     0.1661068612
Bq         0.7172716317    -1.5028847645    -0.0250806870
Bq         0.6402350388    -1.5455677416     0.2617006353
Bq         0.7429504960    -1.4886571055    -0.1206744610
Bq         0.6145561744    -1.5597954007     0.3572944094
Bq         0.7686293604    -1.4744294465    -0.2162682351
Bq         0.5888773101    -1.5740230597     0.4528881835

1
2
3
4
5
6
7
8
9
10
11
12
13
14
15
16
17
18
19
20
21
22
23
24
25
26
27
28
29
30
31
32
33
34
35
36
37
38
39
40
41
42
43
44
45
46
47
48
49
50
51
52
53
54
55
56
57
58
59
60
61
62
63
64
65
66
67
68
69
70
71
72
73
74
75
76
77
78
79
80
81
82
83
84
85
86
87
88
89
90
91
92
93
94
95
96
97
98
99
100
101
102
103
104
105
106
107
108
109
110
111
112
113
114
115
116
117
118
119
120
121
122
123
124
125
126
127
128
129
130
131
132
133
134
135
136
137
138
139
140
141
142
143
144
145
146
147
148
149
150
151
152
153
154
155
156
157
158
159
160
161
162
163
164
165
166
167
168
169
170
171
172
173
174
175
176
177
178
179
180
181
182
183
184
185
186
187
188
189
190
191
192
193
194
195
196
197
198
199
200
201
202
203
204
205
206
207
208
209
210
211
212
213
214
215
216
217
218
219
220
221
222
223
224
225
226
227
228
229
230
231
232
233
234
235
236

