%nproc=8
%mem=1000MB
# rb3lyp/6-311+g** NMR geom=connectivity

Title

0 1
C    -4.0500558   -0.5771862    0.8136712
H    -5.0263804   -1.0082727    1.0024760
C    -3.9381552    0.6617804    0.2400876
H    -4.8252424    1.2338890   -0.0111295
C    -2.6768410    1.2433246    0.0057578
C    -1.4974121    0.5051527    0.2848253
C    -1.6508332   -0.7338728    0.9404026
H    -0.7713646   -1.2730967    1.2633753
C    -2.8898548   -1.2624035    1.1994307
H    -2.9683706   -2.2124563    1.7152676
C    -2.5773185    2.5963696   -0.4192930
H    -3.4870728    3.1412239   -0.6474055
C    -1.3741895    3.2147896   -0.4364030
H    -1.2997315    4.2742019   -0.6578144
C    -0.1719488    2.4994090   -0.1734588
C    -0.2043917    1.1018437    0.0192689
C     1.0513491    3.2042560   -0.0676222
H     1.0427344    4.2819499   -0.1896997
C     2.1942091    2.5487446    0.2579577
H     3.1168527    3.0912848    0.4334727
C     2.2216473    1.1336562    0.2934990
C     1.0486931    0.3945528    0.0302412
C     3.4483363    0.4614633    0.5573939
H     4.3095794    1.0606054    0.8334846
C     3.5427346   -0.8855926    0.4749463
H     4.4731467   -1.3939704    0.7038822
C     2.4490052   -1.6474447   -0.0196319
C     1.2150704   -1.0057258   -0.3013573
C     0.2531113   -1.7434440   -1.0216591
H    -0.6541356   -1.2535051   -1.3462847
C     0.4494193   -3.0628597   -1.3413779
H    -0.3083162   -3.5944309   -1.9054060
C     1.6251726   -3.7207967   -0.9552541
H     1.7670048   -4.7687404   -1.1927019
C     2.6109872   -3.0144177   -0.3183050
H     3.5525612   -3.4902813   -0.0646367
Bq        -2.3862548258    -1.2879202974     1.1910216169
Bq        -2.3880248037    -1.0705067124     1.6412751013
Bq        -2.3882078670    -0.9369726027     1.6878434172
Bq        -2.3874998758    -1.0239380367     1.5077420234
Bq        -2.3885618626    -0.8934898857     1.7778941140
Bq        -2.3871458803    -1.0674207537     1.4176913265
Bq        -2.3889158581    -0.8500071687     1.8679448109
Bq        -2.3867918847    -1.1109034707     1.3276406296
Bq        -2.3892698537    -0.8065244517     1.9579955078
Bq        -2.3864378891    -1.1543861877     1.2375899327
Bq        -2.3896238493    -0.7630417347     2.0480462047
Bq        -2.3860838935    -1.1978689047     1.1475392359
Bq        -2.3878538714    -0.9804553197     1.5977927203
Bq        -2.3880369347    -0.8469212100     1.6443610361
Bq        -2.3873289436    -0.9338866440     1.4642596424
Bq        -2.3883909303    -0.8034384930     1.7344117330
Bq        -2.3869749480    -0.9773693610     1.3742089455
Bq        -2.3887449259    -0.7599557760     1.8244624299
Bq        -2.3866209524    -1.0208520780     1.2841582486
Bq        -2.3890989214    -0.7164730590     1.9145131268
Bq        -2.3862669568    -1.0643347950     1.1941075517
Bq        -2.3894529170    -0.6729903420     2.0045638237
Bq        -2.3859129613    -1.1078175120     1.1040568548
Bq        -2.3876829391    -0.8904039270     1.5543103392
Bq        -2.3878660024    -0.7568698173     1.6008786551
Bq        -2.3871580113    -0.8438352514     1.4207772613
Bq        -2.3882199980    -0.7133871003     1.6909293520
Bq        -2.3868040157    -0.8873179684     1.3307265644
Bq        -2.3885739936    -0.6699043833     1.7809800489
Bq        -2.3864500201    -0.9308006854     1.2406758676
Bq        -2.3889279892    -0.6264216663     1.8710307457
Bq        -2.3860960246    -0.9742834024     1.1506251707
Bq        -2.3892819847    -0.5829389493     1.9610814426
Bq        -2.3857420290    -1.0177661194     1.0605744738
Bq        -2.3875120069    -0.8003525344     1.5108279582
Bq        -2.3876950702    -0.6668184247     1.5573962741
Bq        -2.3869870790    -0.7537838587     1.3772948803
Bq        -2.3880490657    -0.6233357077     1.6474469709
Bq        -2.3866330834    -0.7972665757     1.2872441834
Bq        -2.3884030613    -0.5798529907     1.7374976678
Bq        -2.3862790879    -0.8407492927     1.1971934865
Bq        -2.3887570569    -0.5363702737     1.8275483647
Bq        -2.3859250923    -0.8842320097     1.1071427896
Bq        -2.3891110525    -0.4928875567     1.9175990616
Bq        -2.3855710967    -0.9277147267     1.0170920928
Bq        -2.3873410746    -0.7103011417     1.4673455772
Bq        -2.3875241379    -0.5767670320     1.5139138930
Bq        -2.3868161467    -0.6637324660     1.3338124993
Bq        -2.3878781335    -0.5332843150     1.6039645899
Bq        -2.3864621512    -0.7072151830     1.2437618024
Bq        -2.3882321290    -0.4898015980     1.6940152868
Bq        -2.3861081556    -0.7506979000     1.1537111055
Bq        -2.3885861246    -0.4463188810     1.7840659837
Bq        -2.3857541600    -0.7941806170     1.0636604086
Bq        -2.3889401202    -0.4028361640     1.8741166806
Bq        -2.3854001644    -0.8376633340     0.9736097117
Bq        -2.3871701423    -0.6202497490     1.4238631961
Bq        -2.3873532056    -0.4867156393     1.4704315120
Bq        -2.3866452145    -0.5736810733     1.2903301182
Bq        -2.3877072012    -0.4432329223     1.5604822089
Bq        -2.3862912189    -0.6171637904     1.2002794213
Bq        -2.3880611968    -0.3997502053     1.6505329058
Bq        -2.3859372233    -0.6606465074     1.1102287245
Bq        -2.3884151923    -0.3562674883     1.7405836026
Bq        -2.3855832277    -0.7041292244     1.0201780276
Bq        -2.3887691879    -0.3127847713     1.8306342995
Bq        -2.3852292322    -0.7476119414     0.9301273307
Bq        -2.3869992100    -0.5301983563     1.3803808151
Bq        -2.3871822733    -0.3966642467     1.4269491310
Bq        -2.3864742822    -0.4836296807     1.2468477372
Bq        -2.3875362689    -0.3531815297     1.5169998278
Bq        -2.3861202866    -0.5271123977     1.1567970403
Bq        -2.3878902645    -0.3096988127     1.6070505247
Bq        -2.3857662910    -0.5705951147     1.0667463434
Bq        -2.3882442601    -0.2662160957     1.6971012216
Bq        -2.3854122955    -0.6140778317     0.9766956465
Bq        -2.3885982556    -0.2227333786     1.7871519185
Bq        -2.3850582999    -0.6575605487     0.8866449497
Bq        -2.3868282778    -0.4401469637     1.3368984341
Bq        -2.3870113411    -0.3066128540     1.3834667499
Bq        -2.3863033499    -0.3935782880     1.2033653562
Bq        -2.3873653366    -0.2631301370     1.4735174468
Bq        -2.3859493543    -0.4370610050     1.1133146593
Bq        -2.3877193322    -0.2196474200     1.5635681437
Bq        -2.3855953588    -0.4805437220     1.0232639624
Bq        -2.3880733278    -0.1761647030     1.6536188406
Bq        -2.3852413632    -0.5240264390     0.9332132655
Bq        -2.3884273234    -0.1326819860     1.7436695375
Bq        -2.3848873676    -0.5675091560     0.8431625686
Bq        -2.3866573455    -0.3500955710     1.2934160530
Bq        -2.3868404088    -0.2165614613     1.3399843689
Bq        -2.3861324176    -0.3035268953     1.1598829751
Bq        -2.3871944044    -0.1730787443     1.4300350658
Bq        -2.3857784221    -0.3470096123     1.0698322782
Bq        -2.3875483999    -0.1295960273     1.5200857627
Bq        -2.3854244265    -0.3904923293     0.9797815814
Bq        -2.3879023955    -0.0861133103     1.6101364595
Bq        -2.3850704309    -0.4339750463     0.8897308845
Bq        -2.3882563911    -0.0426305933     1.7001871564
Bq        -2.3847164353    -0.4774577634     0.7996801876
Bq        -2.3864864132    -0.2600441783     1.2499336720
Bq        -2.3866694765    -0.1265100687     1.2965019879
Bq        -2.3859614854    -0.2134755027     1.1164005941
Bq        -2.3870234721    -0.0830273517     1.3865526847
Bq        -2.3856074898    -0.2569582197     1.0263498972
Bq        -2.3873774677    -0.0395446346     1.4766033816
Bq        -2.3852534942    -0.3004409367     0.9362992003
Bq        -2.3877314632     0.0039380824     1.5666540785
Bq        -2.3848994986    -0.3439236537     0.8462485034
Bq        -2.3880854588     0.0474207994     1.6567047754
Bq        -2.3845455031    -0.3874063707     0.7561978066
Bq        -2.3863154809    -0.1699927857     1.2064512910
Bq        -2.3864985442    -0.0364586760     1.2530196068
Bq        -2.3857905531    -0.1234241100     1.0729182131
Bq        -2.3868525398     0.0070240410     1.3430703037
Bq        -2.3854365575    -0.1669068270     0.9828675162
Bq        -2.3872065354     0.0505067580     1.4331210006
Bq        -2.3850825619    -0.2103895440     0.8928168193
Bq        -2.3875605310     0.0939894750     1.5231716975
Bq        -2.3847285664    -0.2538722610     0.8027661224
Bq        -2.3879145265     0.1374721920     1.6132223944
Bq        -2.3843745708    -0.2973549780     0.7127154255
Bq        -2.3861445487    -0.0799413930     1.1629689099
Bq        -2.3863276120     0.0535927167     1.2095372258
Bq        -2.3856196208    -0.0333727173     1.0294358320
Bq        -2.3866816075     0.0970754337     1.2995879227
Bq        -2.3852656252    -0.0768554343     0.9393851351
Bq        -2.3870356031     0.1405581507     1.3896386196
Bq        -2.3849116297    -0.1203381513     0.8493344383
Bq        -2.3873895987     0.1840408677     1.4796893164
Bq        -2.3845576341    -0.1638208683     0.7592837414
Bq        -2.3877435943     0.2275235847     1.5697400133
Bq        -2.3842036385    -0.2073035853     0.6692330445
Bq        -2.3859736164     0.0101099997     1.1194865289
Bq        -2.3861566797     0.1436441094     1.1660548448
Bq        -2.3854486885     0.0566786753     0.9859534510
Bq        -2.3865106753     0.1871268264     1.2561055416
Bq        -2.3850946930     0.0131959583     0.8959027541
Bq        -2.3868646708     0.2306095434     1.3461562385
Bq        -2.3847406974    -0.0302867587     0.8058520572
Bq        -2.3872186664     0.2740922604     1.4362069354
Bq        -2.3843867018    -0.0737694757     0.7158013604
Bq        -2.3875726620     0.3175749774     1.5262576323
Bq        -2.3840327062    -0.1172521927     0.6257506635
Bq        -2.3858026841     0.1001613924     1.0760041479
Bq        -2.3859857474     0.2336955020     1.1225724637
Bq        -2.3852777563     0.1467300680     0.9424710700
Bq        -2.3863397430     0.2771782190     1.2126231606
Bq        -2.3849237607     0.1032473510     0.8524203731
Bq        -2.3866937386     0.3206609360     1.3026738575
Bq        -2.3845697651     0.0597646340     0.7623696762
Bq        -2.3870477341     0.3641436530     1.3927245544
Bq        -2.3842157695     0.0162819170     0.6723189793
Bq        -2.3874017297     0.4076263700     1.4827752513
Bq        -2.3838617740    -0.0272008000     0.5822682824
Bq        -2.3856317518     0.1902127850     1.0325217668
Bq        -2.3858148151     0.3237468947     1.0790900827
Bq        -2.3851068240     0.2367814607     0.8989886889
Bq        -2.3861688107     0.3672296117     1.1691407796
Bq        -2.3847528284     0.1932987437     0.8089379921
Bq        -2.3865228063     0.4107123287     1.2591914765
Bq        -2.3843988328     0.1498160267     0.7188872952
Bq        -2.3868768019     0.4541950457     1.3492421733
Bq        -2.3840448373     0.1063333097     0.6288365983
Bq        -2.3872307974     0.4976777627     1.4392928702
Bq        -2.3836908417     0.0628505927     0.5387859014
Bq        -2.3854608196     0.2802641777     0.9890393858
Bq        -2.3856438829     0.4137982874     1.0356077017
Bq        -2.3849358917     0.3268328534     0.8555063079
Bq        -2.3859978784     0.4572810044     1.1256583985
Bq        -2.3845818961     0.2833501364     0.7654556110
Bq        -2.3863518740     0.5007637214     1.2157090954
Bq        -2.3842279006     0.2398674194     0.6754049141
Bq        -2.3867058696     0.5442464384     1.3057597923
Bq        -2.3838739050     0.1963847023     0.5853542173
Bq        -2.3870598652     0.5877291554     1.3958104892
Bq        -2.3835199094     0.1529019853     0.4953035204
Bq        -2.3852898873     0.3703155704     0.9455570048
Bq        -2.3854729506     0.5038496800     0.9921253206
Bq        -2.3847649594     0.4168842460     0.8120239269
Bq        -2.3858269462     0.5473323970     1.0821760175
Bq        -2.3844109639     0.3734015290     0.7219732300
Bq        -2.3861809417     0.5908151140     1.1722267144
Bq        -2.3840569683     0.3299188120     0.6319225331
Bq        -2.3865349373     0.6342978311     1.2622774113
Bq        -2.3837029727     0.2864360950     0.5418718362
Bq        -2.3868889329     0.6777805481     1.3523281082
Bq        -2.3833489771     0.2429533780     0.4518211393
Bq        -2.3851189550     0.4603669630     0.9020746238
Bq        -2.3853020183     0.5939010727     0.9486429396
Bq        -2.3845940272     0.5069356387     0.7685415458
Bq        -2.3856560139     0.6373837897     1.0386936365
Bq        -2.3842400316     0.4634529217     0.6784908490
Bq        -2.3860100095     0.6808665067     1.1287443334
Bq        -2.3838860360     0.4199702047     0.5884401521
Bq        -2.3863640050     0.7243492237     1.2187950302
Bq        -2.3835320404     0.3764874877     0.4983894552
Bq        -2.3867180006     0.7678319407     1.3088457271
Bq        -2.3831780449     0.3330047707     0.4083387583
Bq        -2.3849480227     0.5504183557     0.8585922427

1
2
3
4
5
6
7
8
9
10
11
12
13
14
15
16
17
18
19
20
21
22
23
24
25
26
27
28
29
30
31
32
33
34
35
36
37
38
39
40
41
42
43
44
45
46
47
48
49
50
51
52
53
54
55
56
57
58
59
60
61
62
63
64
65
66
67
68
69
70
71
72
73
74
75
76
77
78
79
80
81
82
83
84
85
86
87
88
89
90
91
92
93
94
95
96
97
98
99
100
101
102
103
104
105
106
107
108
109
110
111
112
113
114
115
116
117
118
119
120
121
122
123
124
125
126
127
128
129
130
131
132
133
134
135
136
137
138
139
140
141
142
143
144
145
146
147
148
149
150
151
152
153
154
155
156
157
158
159
160
161
162
163
164
165
166
167
168
169
170
171
172
173
174
175
176
177
178
179
180
181
182
183
184
185
186
187
188
189
190
191
192
193
194
195
196
197
198
199
200
201
202
203
204
205
206
207
208
209
210
211
212
213
214
215
216
217
218
219
220
221
222
223
224
225
226
227
228
229
230
231
232
233
234
235
236

