%nproc=8
%mem=1000MB
# rb3lyp/6-311+g** NMR geom=connectivity

Title

0 1
C    -4.0500558   -0.5771862    0.8136712
H    -5.0263804   -1.0082727    1.0024760
C    -3.9381552    0.6617804    0.2400876
H    -4.8252424    1.2338890   -0.0111295
C    -2.6768410    1.2433246    0.0057578
C    -1.4974121    0.5051527    0.2848253
C    -1.6508332   -0.7338728    0.9404026
H    -0.7713646   -1.2730967    1.2633753
C    -2.8898548   -1.2624035    1.1994307
H    -2.9683706   -2.2124563    1.7152676
C    -2.5773185    2.5963696   -0.4192930
H    -3.4870728    3.1412239   -0.6474055
C    -1.3741895    3.2147896   -0.4364030
H    -1.2997315    4.2742019   -0.6578144
C    -0.1719488    2.4994090   -0.1734588
C    -0.2043917    1.1018437    0.0192689
C     1.0513491    3.2042560   -0.0676222
H     1.0427344    4.2819499   -0.1896997
C     2.1942091    2.5487446    0.2579577
H     3.1168527    3.0912848    0.4334727
C     2.2216473    1.1336562    0.2934990
C     1.0486931    0.3945528    0.0302412
C     3.4483363    0.4614633    0.5573939
H     4.3095794    1.0606054    0.8334846
C     3.5427346   -0.8855926    0.4749463
H     4.4731467   -1.3939704    0.7038822
C     2.4490052   -1.6474447   -0.0196319
C     1.2150704   -1.0057258   -0.3013573
C     0.2531113   -1.7434440   -1.0216591
H    -0.6541356   -1.2535051   -1.3462847
C     0.4494193   -3.0628597   -1.3413779
H    -0.3083162   -3.5944309   -1.9054060
C     1.6251726   -3.7207967   -0.9552541
H     1.7670048   -4.7687404   -1.1927019
C     2.6109872   -3.0144177   -0.3183050
H     3.5525612   -3.4902813   -0.0646367
Bq        -3.2549954738     2.0087015418     0.8019441608
Bq        -3.2165756606     1.7632083681    -0.1666925201
Bq        -3.2357855672     1.8859549549     0.3176258203
Bq        -3.2386545943     2.0074441043     0.3899594590
Bq        -3.2309706316     1.9583454695     0.1962321228
Bq        -3.2424965756     2.0319934216     0.4868231271
Bq        -3.2271286503     1.9337961521     0.0993684547
Bq        -3.2463385570     2.0565427390     0.5836867952
Bq        -3.2232866690     1.9092468348     0.0025047866
Bq        -3.2501805383     2.0810920564     0.6805504633
Bq        -3.2194446877     1.8846975174    -0.0943588815
Bq        -3.2540225196     2.1056413738     0.7774141313
Bq        -3.2156027063     1.8601482000    -0.1912225496
Bq        -3.2348126130     1.9828947869     0.2930957909
Bq        -3.2376816401     2.1043839362     0.3654294296
Bq        -3.2299976774     2.0552853014     0.1717020934
Bq        -3.2415236214     2.1289332536     0.4622930976
Bq        -3.2261556961     2.0307359841     0.0748384253
Bq        -3.2453656027     2.1534825709     0.5591567657
Bq        -3.2223137148     2.0061866667    -0.0220252428
Bq        -3.2492075841     2.1780318883     0.6560204338
Bq        -3.2184717334     1.9816373493    -0.1188889109
Bq        -3.2530495654     2.2025812057     0.7528841019
Bq        -3.2146297521     1.9570880319    -0.2157525790
Bq        -3.2338396587     2.0798346188     0.2685657615
Bq        -3.2367086859     2.2013237681     0.3408994001
Bq        -3.2290247232     2.1522251334     0.1471720640
Bq        -3.2405506672     2.2258730855     0.4377630682
Bq        -3.2251827419     2.1276758160     0.0503083959
Bq        -3.2443926485     2.2504224029     0.5346267363
Bq        -3.2213407605     2.1031264986    -0.0465552722
Bq        -3.2482346298     2.2749717203     0.6314904044
Bq        -3.2174987792     2.0785771813    -0.1434189403
Bq        -3.2520766112     2.2995210376     0.7283540725
Bq        -3.2136567979     2.0540278639    -0.2402826084
Bq        -3.2328667045     2.1767744508     0.2440357320
Bq        -3.2357357316     2.2982636001     0.3163693707
Bq        -3.2280517690     2.2491649653     0.1226420345
Bq        -3.2395777130     2.3228129174     0.4132330388
Bq        -3.2242097876     2.2246156479     0.0257783664
Bq        -3.2434196943     2.3473622348     0.5100967069
Bq        -3.2203678063     2.2000663306    -0.0710853017
Bq        -3.2472616756     2.3719115522     0.6069603750
Bq        -3.2165258250     2.1755170132    -0.1679489697
Bq        -3.2511036569     2.3964608696     0.7038240431
Bq        -3.2126838437     2.1509676958    -0.2648126378
Bq        -3.2318937503     2.2737142827     0.2195057026
Bq        -3.2347627774     2.3952034320     0.2918393413
Bq        -3.2270788147     2.3461047973     0.0981120051
Bq        -3.2386047587     2.4197527494     0.3887030094
Bq        -3.2232368334     2.3215554799     0.0012483370
Bq        -3.2424467401     2.4443020668     0.4855666775
Bq        -3.2193948521     2.2970061625    -0.0956153311
Bq        -3.2462887214     2.4688513841     0.5824303455
Bq        -3.2155528708     2.2724568451    -0.1924789992
Bq        -3.2501307027     2.4934007015     0.6792940136
Bq        -3.2117108894     2.2479075278    -0.2893426673
Bq        -3.2309207961     2.3706541146     0.1949756732
Bq        -3.2337898232     2.4921432640     0.2673093119
Bq        -3.2261058605     2.4430446292     0.0735819757
Bq        -3.2376318045     2.5166925813     0.3641729799
Bq        -3.2222638792     2.4184953118    -0.0232816924
Bq        -3.2414737858     2.5412418987     0.4610366480
Bq        -3.2184218979     2.3939459944    -0.1201453605
Bq        -3.2453157672     2.5657912161     0.5579003161
Bq        -3.2145799165     2.3693966771    -0.2170090286
Bq        -3.2491577485     2.5903405335     0.6547639842
Bq        -3.2107379352     2.3448473597    -0.3138726967
Bq        -3.2299478418     2.4675939466     0.1704456438
Bq        -3.2328168690     2.5890830959     0.2427792824
Bq        -3.2251329063     2.5399844611     0.0490519462
Bq        -3.2366588503     2.6136324133     0.3396429505
Bq        -3.2212909250     2.5154351438    -0.0478117218
Bq        -3.2405008316     2.6381817306     0.4365066186
Bq        -3.2174489436     2.4908858264    -0.1446753899
Bq        -3.2443428129     2.6627310480     0.5333702867
Bq        -3.2136069623     2.4663365090    -0.2415390580
Bq        -3.2481847943     2.6872803654     0.6302339548
Bq        -3.2097649810     2.4417871916    -0.3384027261
Bq        -3.2289748876     2.5645337785     0.1459156143
Bq        -3.2318439147     2.6860229278     0.2182492530
Bq        -3.2241599521     2.6369242931     0.0245219168
Bq        -3.2356858961     2.7105722452     0.3151129211
Bq        -3.2203179707     2.6123749757    -0.0723417513
Bq        -3.2395278774     2.7351215626     0.4119765892
Bq        -3.2164759894     2.5878256583    -0.1692054194
Bq        -3.2433698587     2.7596708800     0.5088402573
Bq        -3.2126340081     2.5632763409    -0.2660690875
Bq        -3.2472118400     2.7842201973     0.6057039254
Bq        -3.2087920268     2.5387270236    -0.3629327555
Bq        -3.2280019334     2.6614736105     0.1213855849
Bq        -3.2308709605     2.7829627598     0.1937192236
Bq        -3.2231869978     2.7338641250    -0.0000081126
Bq        -3.2347129418     2.8075120771     0.2905828917
Bq        -3.2193450165     2.7093148076    -0.0968717807
Bq        -3.2385549232     2.8320613945     0.3874465597
Bq        -3.2155030352     2.6847654903    -0.1937354488
Bq        -3.2423969045     2.8566107119     0.4843102278
Bq        -3.2116610539     2.6602161729    -0.2905991169
Bq        -3.2462388858     2.8811600293     0.5811738959
Bq        -3.2078190725     2.6356668555    -0.3874627850
Bq        -3.2270289792     2.7584134424     0.0968555555
Bq        -3.2298980063     2.8799025917     0.1691891941
Bq        -3.2222140436     2.8308039570    -0.0245381420
Bq        -3.2337399876     2.9044519091     0.2660528622
Bq        -3.2183720623     2.8062546396    -0.1214018101
Bq        -3.2375819689     2.9290012265     0.3629165303
Bq        -3.2145300810     2.7817053222    -0.2182654782
Bq        -3.2414239503     2.9535505438     0.4597801984
Bq        -3.2106880996     2.7571560048    -0.3151291463
Bq        -3.2452659316     2.9780998612     0.5566438665
Bq        -3.2068461183     2.7326066875    -0.4119928144
Bq        -3.2260560250     2.8553532743     0.0723255261
Bq        -3.2289250521     2.9768424236     0.1446591647
Bq        -3.2212410894     2.9277437889    -0.0490681715
Bq        -3.2327670334     3.0013917410     0.2415228328
Bq        -3.2173991081     2.9031944715    -0.1459318396
Bq        -3.2366090147     3.0259410584     0.3383865009
Bq        -3.2135571267     2.8786451541    -0.2427955076
Bq        -3.2404509960     3.0504903758     0.4352501690
Bq        -3.2097151454     2.8540958368    -0.3396591757
Bq        -3.2442929774     3.0750396931     0.5321138371
Bq        -3.2058731641     2.8295465194    -0.4365228438
Bq        -3.2250830707     2.9522931063     0.0477954966
Bq        -3.2279520978     3.0737822556     0.1201291353
Bq        -3.2202681352     3.0246836208    -0.0735982009
Bq        -3.2317940792     3.0983315730     0.2169928034
Bq        -3.2164261538     3.0001343035    -0.1704618690
Bq        -3.2356360605     3.1228808903     0.3138564715
Bq        -3.2125841725     2.9755849861    -0.2673255371
Bq        -3.2394780418     3.1474302077     0.4107201396
Bq        -3.2087421912     2.9510356687    -0.3641892052
Bq        -3.2433200231     3.1719795251     0.5075838076
Bq        -3.2049002099     2.9264863513    -0.4610528733
Bq        -3.2241101165     3.0492329382     0.0232654672
Bq        -3.2269791436     3.1707220875     0.0955991059
Bq        -3.2192951809     3.1216234528    -0.0981282303
Bq        -3.2308211249     3.1952714049     0.1924627740
Bq        -3.2154531996     3.0970741354    -0.1949918984
Bq        -3.2346631063     3.2198207223     0.2893264420
Bq        -3.2116112183     3.0725248180    -0.2918555665
Bq        -3.2385050876     3.2443700397     0.3861901101
Bq        -3.2077692370     3.0479755006    -0.3887192346
Bq        -3.2423470689     3.2689193570     0.4830537782
Bq        -3.2039272556     3.0234261833    -0.4855829027
Bq        -3.2231371623     3.1461727701    -0.0012645622
Bq        -3.2260061894     3.2676619195     0.0710690764
Bq        -3.2183222267     3.2185632847    -0.1226582597
Bq        -3.2298481707     3.2922112368     0.1679327445
Bq        -3.2144802454     3.1940139673    -0.2195219278
Bq        -3.2336901520     3.3167605542     0.2647964126
Bq        -3.2106382641     3.1694646500    -0.3163855959
Bq        -3.2375321334     3.3413098716     0.3616600807
Bq        -3.2067962827     3.1449153326    -0.4132492640
Bq        -3.2413741147     3.3658591890     0.4585237488
Bq        -3.2029543014     3.1203660152    -0.5101129321
Bq        -3.2221642081     3.2431126021    -0.0257945917
Bq        -3.2250332352     3.3646017514     0.0465390470
Bq        -3.2173492725     3.3155031167    -0.1471882892
Bq        -3.2288752165     3.3891510688     0.1434027151
Bq        -3.2135072912     3.2909537993    -0.2440519573
Bq        -3.2327171978     3.4137003862     0.2402663832
Bq        -3.2096653098     3.2664044819    -0.3409156254
Bq        -3.2365591791     3.4382497035     0.3371300513
Bq        -3.2058233285     3.2418551645    -0.4377792934
Bq        -3.2404011605     3.4627990209     0.4339937194
Bq        -3.2019813472     3.2173058471    -0.5346429615
Bq        -3.2211912538     3.3400524340    -0.0503246211
Bq        -3.2240602809     3.4615415833     0.0220090176
Bq        -3.2163763183     3.4124429486    -0.1717183186
Bq        -3.2279022623     3.4860909007     0.1188726857
Bq        -3.2125343369     3.3878936312    -0.2685819867
Bq        -3.2317442436     3.5106402181     0.2157363538
Bq        -3.2086923556     3.3633443138    -0.3654456548
Bq        -3.2355862249     3.5351895355     0.3126000218
Bq        -3.2048503743     3.3387949965    -0.4623093229
Bq        -3.2394282063     3.5597388528     0.4094636899
Bq        -3.2010083930     3.3142456791    -0.5591729910
Bq        -3.2202182996     3.4369922660    -0.0748546505
Bq        -3.2230873267     3.5584814153    -0.0025210118
Bq        -3.2154033641     3.5093827805    -0.1962483480
Bq        -3.2269293080     3.5830307327     0.0943426562
Bq        -3.2115613827     3.4848334632    -0.2931120161
Bq        -3.2307712894     3.6075800500     0.1912063243
Bq        -3.2077194014     3.4602841458    -0.3899756842
Bq        -3.2346132707     3.6321293674     0.2880699924
Bq        -3.2038774201     3.4357348284    -0.4868393523
Bq        -3.2384552520     3.6566786848     0.3849336605
Bq        -3.2000354387     3.4111855110    -0.5837030204
Bq        -3.2192453454     3.5339320979    -0.0993846799
Bq        -3.2221143725     3.6554212472    -0.0270510413
Bq        -3.2144304098     3.6063226125    -0.2207783775
Bq        -3.2259563538     3.6799705646     0.0698126268
Bq        -3.2105884285     3.5817732951    -0.3176420455
Bq        -3.2297983351     3.7045198820     0.1666762949
Bq        -3.2067464472     3.5572239777    -0.4145057136
Bq        -3.2336403165     3.7290691993     0.2635399630
Bq        -3.2029044658     3.5326746603    -0.5113693817
Bq        -3.2374822978     3.7536185167     0.3604036311
Bq        -3.1990624845     3.5081253430    -0.6082330498

1
2
3
4
5
6
7
8
9
10
11
12
13
14
15
16
17
18
19
20
21
22
23
24
25
26
27
28
29
30
31
32
33
34
35
36
37
38
39
40
41
42
43
44
45
46
47
48
49
50
51
52
53
54
55
56
57
58
59
60
61
62
63
64
65
66
67
68
69
70
71
72
73
74
75
76
77
78
79
80
81
82
83
84
85
86
87
88
89
90
91
92
93
94
95
96
97
98
99
100
101
102
103
104
105
106
107
108
109
110
111
112
113
114
115
116
117
118
119
120
121
122
123
124
125
126
127
128
129
130
131
132
133
134
135
136
137
138
139
140
141
142
143
144
145
146
147
148
149
150
151
152
153
154
155
156
157
158
159
160
161
162
163
164
165
166
167
168
169
170
171
172
173
174
175
176
177
178
179
180
181
182
183
184
185
186
187
188
189
190
191
192
193
194
195
196
197
198
199
200
201
202
203
204
205
206
207
208
209
210
211
212
213
214
215
216
217
218
219
220
221
222
223
224
225
226
227
228
229
230
231
232
233
234
235
236

