%nproc=8
%mem=1000MB
# rb3lyp/6-311+g** NMR geom=connectivity

Title

0 1
C    -4.0500558   -0.5771862    0.8136712
H    -5.0263804   -1.0082727    1.0024760
C    -3.9381552    0.6617804    0.2400876
H    -4.8252424    1.2338890   -0.0111295
C    -2.6768410    1.2433246    0.0057578
C    -1.4974121    0.5051527    0.2848253
C    -1.6508332   -0.7338728    0.9404026
H    -0.7713646   -1.2730967    1.2633753
C    -2.8898548   -1.2624035    1.1994307
H    -2.9683706   -2.2124563    1.7152676
C    -2.5773185    2.5963696   -0.4192930
H    -3.4870728    3.1412239   -0.6474055
C    -1.3741895    3.2147896   -0.4364030
H    -1.2997315    4.2742019   -0.6578144
C    -0.1719488    2.4994090   -0.1734588
C    -0.2043917    1.1018437    0.0192689
C     1.0513491    3.2042560   -0.0676222
H     1.0427344    4.2819499   -0.1896997
C     2.1942091    2.5487446    0.2579577
H     3.1168527    3.0912848    0.4334727
C     2.2216473    1.1336562    0.2934990
C     1.0486931    0.3945528    0.0302412
C     3.4483363    0.4614633    0.5573939
H     4.3095794    1.0606054    0.8334846
C     3.5427346   -0.8855926    0.4749463
H     4.4731467   -1.3939704    0.7038822
C     2.4490052   -1.6474447   -0.0196319
C     1.2150704   -1.0057258   -0.3013573
C     0.2531113   -1.7434440   -1.0216591
H    -0.6541356   -1.2535051   -1.3462847
C     0.4494193   -3.0628597   -1.3413779
H    -0.3083162   -3.5944309   -1.9054060
C     1.6251726   -3.7207967   -0.9552541
H     1.7670048   -4.7687404   -1.1927019
C     2.6109872   -3.0144177   -0.3183050
H     3.5525612   -3.4902813   -0.0646367
Bq         3.2531781811     1.3812301024     1.7130388163
Bq         3.5099668243     1.5235066926     0.7571010753
Bq         3.3815725027     1.4523683975     1.2350699458
Bq         3.3522025878     1.5371234325     1.3444042594
Bq         3.4035603165     1.5655787506     1.1532167113
Bq         3.3265237235     1.5228957735     1.4399980335
Bq         3.4292391808     1.5798064096     1.0576229372
Bq         3.3008448592     1.5086681145     1.5355918076
Bq         3.4549180451     1.5940340686     0.9620291631
Bq         3.2751659949     1.4944404554     1.6311855817
Bq         3.4805969094     1.6082617277     0.8664353890
Bq         3.2494871305     1.4802127964     1.7267793558
Bq         3.5062757738     1.6224893867     0.7708416149
Bq         3.3778814522     1.5513510915     1.2488104853
Bq         3.3485115373     1.6361061265     1.3581447990
Bq         3.3998692659     1.6645614446     1.1669572508
Bq         3.3228326730     1.6218784675     1.4537385731
Bq         3.4255481303     1.6787891036     1.0713634767
Bq         3.2971538087     1.6076508085     1.5493323472
Bq         3.4512269946     1.6930167627     0.9757697026
Bq         3.2714749443     1.5934231495     1.6449261213
Bq         3.4769058589     1.7072444217     0.8801759285
Bq         3.2457960800     1.5791954904     1.7405198954
Bq         3.5025847232     1.7214720807     0.7845821544
Bq         3.3741904016     1.6503337856     1.2625510249
Bq         3.3448204868     1.7350888206     1.3718853386
Bq         3.3961782154     1.7635441386     1.1806977904
Bq         3.3191416224     1.7208611616     1.4674791127
Bq         3.4218570797     1.7777717977     1.0851040163
Bq         3.2934627581     1.7066335025     1.5630728868
Bq         3.4475359441     1.7919994567     0.9895102422
Bq         3.2677838938     1.6924058435     1.6586666608
Bq         3.4732148084     1.8062271157     0.8939164681
Bq         3.2421050295     1.6781781845     1.7542604349
Bq         3.4988936727     1.8204547748     0.7983226940
Bq         3.3704993511     1.7493164796     1.2762915645
Bq         3.3411294362     1.8340715146     1.3856258781
Bq         3.3924871649     1.8625268327     1.1944383299
Bq         3.3154505719     1.8198438556     1.4812196522
Bq         3.4181660292     1.8767544917     1.0988445558
Bq         3.2897717076     1.8056161966     1.5768134263
Bq         3.4438448935     1.8909821507     1.0032507817
Bq         3.2640928433     1.7913885375     1.6724072004
Bq         3.4695237578     1.9052098098     0.9076570076
Bq         3.2384139789     1.7771608785     1.7680009745
Bq         3.4952026222     1.9194374688     0.8120632336
Bq         3.3668083005     1.8482991736     1.2900321040
Bq         3.3374383857     1.9330542087     1.3993664177
Bq         3.3887961143     1.9615095267     1.2081788695
Bq         3.3117595214     1.9188265496     1.4949601918
Bq         3.4144749787     1.9757371857     1.1125850954
Bq         3.2860806570     1.9045988906     1.5905539659
Bq         3.4401538430     1.9899648448     1.0169913213
Bq         3.2604017927     1.8903712316     1.6861477400
Bq         3.4658327073     2.0041925038     0.9213975472
Bq         3.2347229284     1.8761435725     1.7817415141
Bq         3.4915115716     2.0184201628     0.8258037731
Bq         3.3631172500     1.9472818677     1.3037726436
Bq         3.3337473352     2.0320369027     1.4131069572
Bq         3.3851050638     2.0604922207     1.2219194090
Bq         3.3080684708     2.0178092437     1.5087007313
Bq         3.4107839281     2.0747198798     1.1263256350
Bq         3.2823896065     2.0035815846     1.6042945054
Bq         3.4364627924     2.0889475388     1.0307318609
Bq         3.2567107422     1.9893539256     1.6998882795
Bq         3.4621416568     2.1031751978     0.9351380868
Bq         3.2310318779     1.9751262666     1.7954820536
Bq         3.4878205211     2.1174028569     0.8395443127
Bq         3.3594261995     2.0462645617     1.3175131831
Bq         3.3300562846     2.1310195967     1.4268474968
Bq         3.3814140133     2.1594749148     1.2356599486
Bq         3.3043774203     2.1167919377     1.5224412709
Bq         3.4070928776     2.1737025738     1.1400661745
Bq         3.2786985560     2.1025642787     1.6180350450
Bq         3.4327717419     2.1879302328     1.0444724004
Bq         3.2530196917     2.0883366196     1.7136288191
Bq         3.4584506062     2.2021578919     0.9488786263
Bq         3.2273408273     2.0741089606     1.8092225932
Bq         3.4841294706     2.2163855509     0.8532848522
Bq         3.3557351489     2.1452472558     1.3312537227
Bq         3.6111850614    -2.8181151051     0.7657633006
Bq         3.6625427901    -2.7896597870     0.5745757525
Bq         3.5855061971    -2.8323427641     0.8613570747
Bq         3.6882216544    -2.7754321280     0.4789819784
Bq         3.5598273328    -2.8465704231     0.9569508488
Bq         3.7139005187    -2.7612044690     0.3833882043
Bq         3.5341484685    -2.8607980821     1.0525446229
Bq         3.7395793830    -2.7469768099     0.2877944302
Bq         3.5084696041    -2.8750257412     1.1481383970
Bq         3.7652582474    -2.7327491509     0.1922006561
Bq         3.6368639258    -2.8038874460     0.6701695265
Bq         3.6074940109    -2.7191324110     0.7795038402
Bq         3.6588517395    -2.6906770930     0.5883162920
Bq         3.5818151466    -2.7333600701     0.8750976143
Bq         3.6845306039    -2.6764494339     0.4927225179
Bq         3.5561362823    -2.7475877291     0.9706913884
Bq         3.7102094682    -2.6622217749     0.3971287438
Bq         3.5304574179    -2.7618153881     1.0662851625
Bq         3.7358883325    -2.6479941159     0.3015349697
Bq         3.5047785536    -2.7760430471     1.1618789366
Bq         3.7615671968    -2.6337664569     0.2059411956
Bq         3.6331728752    -2.7049047520     0.6839100661
Bq         3.6038029604    -2.6201497170     0.7932443798
Bq         3.6551606890    -2.5916943989     0.6020568316
Bq         3.5781240960    -2.6343773760     0.8888381539
Bq         3.6808395533    -2.5774667399     0.5064630575
Bq         3.5524452317    -2.6486050350     0.9844319279
Bq         3.7065184177    -2.5632390809     0.4108692834
Bq         3.5267663674    -2.6628326941     1.0800257020
Bq         3.7321972820    -2.5490114219     0.3152755093
Bq         3.5010875031    -2.6770603531     1.1756194761
Bq         3.7578761463    -2.5347837628     0.2196817352
Bq         3.6294818247    -2.6059220580     0.6976506057
Bq         3.6001119098    -2.5211670230     0.8069849193
Bq         3.6514696385    -2.4927117049     0.6157973711
Bq         3.5744330455    -2.5353946820     0.9025786934
Bq         3.6771485028    -2.4784840459     0.5202035970
Bq         3.5487541812    -2.5496223410     0.9981724675
Bq         3.7028273671    -2.4642563868     0.4246098229
Bq         3.5230753169    -2.5638500000     1.0937662416
Bq         3.7285062314    -2.4500287278     0.3290160488
Bq         3.4973964525    -2.5780776591     1.1893600157
Bq         3.7541850958    -2.4358010688     0.2334222748
Bq         3.6257907742    -2.5069393639     0.7113911452
Bq         3.5964208593    -2.4221843289     0.8207254589
Bq         3.6477785879    -2.3937290109     0.6295379107
Bq         3.5707419950    -2.4364119879     0.9163192330
Bq         3.6734574523    -2.3795013518     0.5339441366
Bq         3.5450631306    -2.4506396470     1.0119130071
Bq         3.6991363166    -2.3652736928     0.4383503625
Bq         3.5193842663    -2.4648673060     1.1075067812
Bq         3.7248151809    -2.3510460338     0.3427565884
Bq         3.4937054020    -2.4790949650     1.2031005553
Bq         3.7504940452    -2.3368183748     0.2471628143
Bq         3.6220997236    -2.4079566699     0.7251316848
Bq         3.5927298088    -2.3232016349     0.8344659984
Bq         3.6440875374    -2.2947463168     0.6432784502
Bq         3.5670509444    -2.3374292939     0.9300597725
Bq         3.6697664017    -2.2805186578     0.5476846762
Bq         3.5413720801    -2.3516569529     1.0256535466
Bq         3.6954452660    -2.2662909988     0.4520909021
Bq         3.5156932158    -2.3658846120     1.1212473207
Bq         3.7211241304    -2.2520633397     0.3564971280
Bq         3.4900143515    -2.3801122710     1.2168410948
Bq         3.7468029947    -2.2378356807     0.2609033539
Bq         3.6184086731    -2.3089739759     0.7388722243
Bq         3.5890387582    -2.2242189408     0.8482065380
Bq         3.6403964869    -2.1957636228     0.6570189898
Bq         3.5633598939    -2.2384465999     0.9438003121
Bq         3.6660753512    -2.1815359638     0.5614252157
Bq         3.5376810296    -2.2526742589     1.0393940862
Bq         3.6917542155    -2.1673083047     0.4658314416
Bq         3.5120021653    -2.2669019179     1.1349878603
Bq         3.7174330798    -2.1530806457     0.3702376675
Bq         3.4863233009    -2.2811295770     1.2305816344
Bq         3.7431119442    -2.1388529867     0.2746438934
Bq         3.6147176225    -2.2099912818     0.7526127639
Bq         3.5853477077    -2.1252362468     0.8619470776
Bq         3.6367054363    -2.0967809288     0.6707595294
Bq         3.5596688434    -2.1394639058     0.9575408516
Bq         3.6623843007    -2.0825532697     0.5751657553
Bq         3.5339899790    -2.1536915649     1.0531346257
Bq         3.6880631650    -2.0683256107     0.4795719812
Bq         3.5083111147    -2.1679192239     1.1487283998
Bq         3.7137420293    -2.0540979517     0.3839782071
Bq         3.4826322504    -2.1821468829     1.2443221739
Bq         3.7394208936    -2.0398702926     0.2883844330
Bq         3.6110265720    -2.1110085878     0.7663533035
Bq         3.5816566572    -2.0262535528     0.8756876171
Bq         3.6330143858    -1.9977982347     0.6845000689
Bq         3.5559777928    -2.0404812118     0.9712813912
Bq         3.6586932501    -1.9835705757     0.5889062948
Bq         3.5302989285    -2.0547088708     1.0668751653
Bq         3.6843721144    -1.9693429167     0.4933125207
Bq         3.5046200642    -2.0689365299     1.1624689394
Bq         3.7100509788    -1.9551152576     0.3977187466
Bq         3.4789411999    -2.0831641889     1.2580627135
Bq         3.7357298431    -1.9408875986     0.3021249725
Bq         3.6073355215    -2.0120258937     0.7800938430
Bq         3.5779656066    -1.9272708587     0.8894281567
Bq         3.6293233353    -1.8988155407     0.6982406085
Bq         3.5522867423    -1.9414985178     0.9850219308
Bq         3.6550021996    -1.8845878817     0.6026468344
Bq         3.5266078780    -1.9557261768     1.0806157049
Bq         3.6806810639    -1.8703602226     0.5070530603
Bq         3.5009290136    -1.9699538358     1.1762094790
Bq         3.7063599282    -1.8561325636     0.4114592862
Bq         3.4752501493    -1.9841814949     1.2718032531
Bq         3.7320387926    -1.8419049046     0.3158655121
Bq         3.6036444709    -1.9130431997     0.7938343826
Bq         3.5742745561    -1.8282881647     0.9031686962
Bq         3.6256322847    -1.7998328466     0.7119811480
Bq         3.5485956918    -1.8425158237     0.9987624703
Bq         3.6513111490    -1.7856051876     0.6163873739
Bq         3.5229168274    -1.8567434828     1.0943562444
Bq         3.6769900134    -1.7713775286     0.5207935999
Bq         3.4972379631    -1.8709711418     1.1899500185
Bq         3.7026688777    -1.7571498696     0.4251998258
Bq         3.4715590988    -1.8851988008     1.2855437926
Bq         3.7283477420    -1.7429222105     0.3296060517

1
2
3
4
5
6
7
8
9
10
11
12
13
14
15
16
17
18
19
20
21
22
23
24
25
26
27
28
29
30
31
32
33
34
35
36
37
38
39
40
41
42
43
44
45
46
47
48
49
50
51
52
53
54
55
56
57
58
59
60
61
62
63
64
65
66
67
68
69
70
71
72
73
74
75
76
77
78
79
80
81
82
83
84
85
86
87
88
89
90
91
92
93
94
95
96
97
98
99
100
101
102
103
104
105
106
107
108
109
110
111
112
113
114
115
116
117
118
119
120
121
122
123
124
125
126
127
128
129
130
131
132
133
134
135
136
137
138
139
140
141
142
143
144
145
146
147
148
149
150
151
152
153
154
155
156
157
158
159
160
161
162
163
164
165
166
167
168
169
170
171
172
173
174
175
176
177
178
179
180
181
182
183
184
185
186
187
188
189
190
191
192
193
194
195
196
197
198
199
200
201
202
203
204
205
206
207
208
209
210
211
212
213
214
215
216
217
218
219
220
221
222
223
224
225
226
227
228
229
230
231
232
233
234
235
236

