%nproc=8
%mem=1000MB
# rb3lyp/6-311+g** NMR geom=connectivity

Title

0 1
C    -4.0500558   -0.5771862    0.8136712
H    -5.0263804   -1.0082727    1.0024760
C    -3.9381552    0.6617804    0.2400876
H    -4.8252424    1.2338890   -0.0111295
C    -2.6768410    1.2433246    0.0057578
C    -1.4974121    0.5051527    0.2848253
C    -1.6508332   -0.7338728    0.9404026
H    -0.7713646   -1.2730967    1.2633753
C    -2.8898548   -1.2624035    1.1994307
H    -2.9683706   -2.2124563    1.7152676
C    -2.5773185    2.5963696   -0.4192930
H    -3.4870728    3.1412239   -0.6474055
C    -1.3741895    3.2147896   -0.4364030
H    -1.2997315    4.2742019   -0.6578144
C    -0.1719488    2.4994090   -0.1734588
C    -0.2043917    1.1018437    0.0192689
C     1.0513491    3.2042560   -0.0676222
H     1.0427344    4.2819499   -0.1896997
C     2.1942091    2.5487446    0.2579577
H     3.1168527    3.0912848    0.4334727
C     2.2216473    1.1336562    0.2934990
C     1.0486931    0.3945528    0.0302412
C     3.4483363    0.4614633    0.5573939
H     4.3095794    1.0606054    0.8334846
C     3.5427346   -0.8855926    0.4749463
H     4.4731467   -1.3939704    0.7038822
C     2.4490052   -1.6474447   -0.0196319
C     1.2150704   -1.0057258   -0.3013573
C     0.2531113   -1.7434440   -1.0216591
H    -0.6541356   -1.2535051   -1.3462847
C     0.4494193   -3.0628597   -1.3413779
H    -0.3083162   -3.5944309   -1.9054060
C     1.6251726   -3.7207967   -0.9552541
H     1.7670048   -4.7687404   -1.1927019
C     2.6109872   -3.0144177   -0.3183050
H     3.5525612   -3.4902813   -0.0646367
Bq         1.0021233792     1.2537763051     0.8942409709
Bq         1.0889790975     1.2242953946     0.3012932833
Bq         0.9876474262     1.2586897901     0.9930655854
Bq         1.1034550505     1.2193819095     0.2024686688
Bq         0.9731714731     1.2636032752     1.0918902000
Bq         1.1179310036     1.2144684244     0.1036440542
Bq         1.0455512383     1.2390358498     0.5977671271
Bq         1.0317874192     1.3438285503     0.6917301369
Bq         1.0607393253     1.3340015801     0.4940809078
Bq         1.0173114662     1.3487420354     0.7905547515
Bq         1.0752152784     1.3290880950     0.3952562932
Bq         1.0028355131     1.3536555204     0.8893793661
Bq         1.0896912314     1.3241746099     0.2964316786
Bq         0.9883595601     1.3585690055     0.9882039807
Bq         1.1041671845     1.3192611249     0.1976070640
Bq         0.9738836071     1.3634824906     1.0870285953
Bq         1.1186431375     1.3143476398     0.0987824494
Bq         1.0462633723     1.3389150652     0.5929055223
Bq         1.0324995532     1.4437077657     0.6868685322
Bq         1.0614514593     1.4338807955     0.4892193030
Bq         1.0180236001     1.4486212507     0.7856931467
Bq         1.0759274123     1.4289673104     0.3903946884
Bq         1.0035476471     1.4535347358     0.8845177613
Bq         1.0904033653     1.4240538253     0.2915700738
Bq         0.9890716940     1.4584482209     0.9833423759
Bq         1.1048793184     1.4191403402     0.1927454592
Bq         0.9745957410     1.4633617060     1.0821669905
Bq         1.1193552714     1.4142268552     0.0939208446
Bq         1.0469755062     1.4387942806     0.5880439176
Bq         1.0332116871     1.5435869810     0.6820069274
Bq         1.0621635932     1.5337600109     0.4843576982
Bq         1.0187357341     1.5485004661     0.7808315420
Bq         1.0766395462     1.5288465258     0.3855330836
Bq         1.0042597810     1.5534139512     0.8796561566
Bq         1.0911154993     1.5239330407     0.2867084690
Bq         0.9897838280     1.5583274363     0.9784807711
Bq         1.1055914523     1.5190195556     0.1878838545
Bq         0.9753078749     1.5632409214     1.0773053857
Bq         1.1200674054     1.5141060705     0.0890592399
Bq         1.0476876402     1.5386734959     0.5831823128
Bq         1.0339238211     1.6434661964     0.6771453226
Bq         1.0628757271     1.6336392262     0.4794960935
Bq         1.0194478680     1.6483796815     0.7759699372
Bq         1.0773516802     1.6287257412     0.3806714789
Bq         1.0049719150     1.6532931666     0.8747945518
Bq         1.0918276332     1.6238122561     0.2818468643
Bq         0.9904959619     1.6582066517     0.9736191664
Bq         1.1063035863     1.6188987710     0.1830222497
Bq         0.9760200089     1.6631201367     1.0724437810
Bq         1.1207795393     1.6139852859     0.0841976351
Bq         1.0483997741     1.6385527113     0.5783207080
Bq         1.0346359550     1.7433454118     0.6722837179
Bq         1.0635878611     1.7335184416     0.4746344887
Bq         1.0201600020     1.7482588969     0.7711083324
Bq         1.0780638141     1.7286049565     0.3758098741
Bq         1.0056840489     1.7531723819     0.8699329470
Bq         1.0925397672     1.7236914715     0.2769852595
Bq         0.9912080959     1.7580858670     0.9687575616
Bq         1.1070157202     1.7187779864     0.1781606449
Bq         0.9767321428     1.7629993521     1.0675821762
Bq         1.1214916733     1.7138645013     0.0793360303
Bq         1.0491119080     1.7384319267     0.5734591033
Bq         1.0353480889     1.8432246272     0.6674221131
Bq         1.0642999950     1.8333976570     0.4697728839
Bq         1.0208721359     1.8481381122     0.7662467277
Bq         1.0787759481     1.8284841719     0.3709482693
Bq         1.0063961829     1.8530515973     0.8650713423
Bq         1.0932519011     1.8235706868     0.2721236547
Bq         0.9919202298     1.8579650824     0.9638959568
Bq         1.1077278542     1.8186572017     0.1732990402
Bq         0.9774442768     1.8628785675     1.0627205714
Bq         1.1222038072     1.8137437167     0.0744744256
Bq         1.0498240420     1.8383111421     0.5685974985
Bq         1.0360602229     1.9431038425     0.6625605083
Bq         1.0650121290     1.9332768724     0.4649112792
Bq         1.0215842698     1.9480173276     0.7613851229
Bq         1.0794880820     1.9283633873     0.3660866646
Bq         1.0071083168     1.9529308127     0.8602097375
Bq         1.0939640351     1.9234499022     0.2672620500
Bq         0.9926323637     1.9578442978     0.9590343521
Bq         1.1084399881     1.9185364171     0.1684374354
Bq         0.9781564107     1.9627577829     1.0578589667
Bq         1.1229159411     1.9136229320     0.0696128208
Bq         1.0505361759     1.9381903575     0.5637358937
Bq         1.0367723568     2.0429830579     0.6576989036
Bq         1.0657242629     2.0331560878     0.4600496744
Bq         1.0222964038     2.0478965430     0.7565235181
Bq         1.0802002160     2.0282426027     0.3612250598
Bq         1.0078204507     2.0528100281     0.8553481327
Bq         1.0946761690     2.0233291176     0.2624004452
Bq         0.9933444977     2.0577235132     0.9541727473
Bq         1.1091521220     2.0184156325     0.1635758306
Bq         0.9788685446     2.0626369982     1.0529973619
Bq         1.1236280751     2.0135021474     0.0647512160
Bq         1.0512483099     2.0380695728     0.5588742890
Bq         1.0374844908     2.1428622733     0.6528372988
Bq         1.0664363969     2.1330353031     0.4551880696
Bq         1.0230085377     2.1477757584     0.7516619134
Bq         1.0809123499     2.1281218180     0.3563634550
Bq         1.0085325847     2.1526892435     0.8504865280
Bq         1.0953883029     2.1232083330     0.2575388405
Bq         0.9940566316     2.1576027285     0.9493111425
Bq         1.1098642560     2.1182948479     0.1587142259
Bq         0.9795806786     2.1625162136     1.0481357571
Bq         1.1243402090     2.1133813628     0.0598896113
Bq         1.0519604438     2.1379487882     0.5540126842
Bq         1.0381966247     2.2427414887     0.6479756940
Bq         1.0671485308     2.2329145185     0.4503264649
Bq         1.0237206717     2.2476549738     0.7468003086
Bq         1.0816244838     2.2280010334     0.3515018503
Bq         1.0092447186     2.2525684588     0.8456249232
Bq         1.0961004369     2.2230875483     0.2526772357
Bq         0.9947687656     2.2574819439     0.9444495378
Bq         1.1105763899     2.2181740633     0.1538526211
Bq         0.9802928125     2.2623954290     1.0432741524
Bq         1.1250523430     2.2132605782     0.0550280065
Bq         1.0526725778     2.2378280036     0.5491510794
Bq         1.0389087586     2.3426207040     0.6431140893
Bq         1.0678606647     2.3327937339     0.4454648601
Bq         1.0244328056     2.3475341891     0.7419387038
Bq         1.0823366178     2.3278802488     0.3466402455
Bq         1.0099568526     2.3524476742     0.8407633184
Bq         1.0968125708     2.3229667637     0.2478156309
Bq         0.9954808995     2.3573611593     0.9395879330
Bq         1.1112885239     2.3180532786     0.1489910163
Bq         0.9810049465     2.3622746444     1.0384125476
Bq         1.1257644769     2.3131397936     0.0501664017
Bq         1.0533847117     2.3377072190     0.5442894747
Bq         1.0396208926     2.4424999194     0.6382524845
Bq         1.0685727987     2.4326729493     0.4406032553
Bq         1.0251449395     2.4474134045     0.7370770991
Bq         1.0830487517     2.4277594642     0.3417786407
Bq         1.0106689865     2.4523268896     0.8359017137
Bq         1.0975247048     2.4228459791     0.2429540262
Bq         0.9961930335     2.4572403747     0.9347263282
Bq         1.1120006578     2.4179324940     0.1441294116
Bq         0.9817170804     2.4621538598     1.0335509428
Bq         1.1264766109     2.4130190089     0.0453047970
Bq         1.0540968456     2.4375864343     0.5394278699
Bq         1.0403330265     2.5423791348     0.6333908797
Bq         1.0692849326     2.5325521646     0.4357416506
Bq         1.0258570735     2.5472926199     0.7322154943
Bq         1.0837608857     2.5276386796     0.3369170360
Bq         1.0113811204     2.5522061050     0.8310401089
Bq         1.0982368387     2.5227251945     0.2380924214
Bq         0.9969051674     2.5571195900     0.9298647235
Bq         1.1127127918     2.5178117094     0.1392678068
Bq         0.9824292144     2.5620330751     1.0286893381
Bq         1.1271887448     2.5128982243     0.0404431922
Bq         1.0548089796     2.5374656497     0.5345662651
Bq         1.0410451605     2.6422583502     0.6285292750
Bq         1.0699970666     2.6324313800     0.4308800458
Bq         1.0265692074     2.6471718353     0.7273538895
Bq         1.0844730196     2.6275178949     0.3320554312
Bq         1.0120932544     2.6520853203     0.8261785041
Bq         1.0989489726     2.6226044098     0.2332308166
Bq         0.9976173013     2.6569988054     0.9250031187
Bq         1.1134249257     2.6176909248     0.1344062020
Bq         0.9831413483     2.6619122905     1.0238277333
Bq         1.1279008787     2.6127774397     0.0355815874
Bq         1.0555211135     2.6373448651     0.5297046604
Bq         1.0417572944     2.7421375656     0.6236676702
Bq         1.0707092005     2.7323105954     0.4260184410
Bq         1.0272813414     2.7470510506     0.7224922848
Bq         1.0851851535     2.7273971103     0.3271938264
Bq         1.0128053883     2.7519645357     0.8213168994
Bq         1.0996611066     2.7224836252     0.2283692119
Bq         0.9983294353     2.7568780208     0.9201415139
Bq         1.1141370596     2.7175701401     0.1295445973
Bq         0.9838534822     2.7617915059     1.0189661285
Bq         1.1286130127     2.7126566551     0.0307199827
Bq         1.0562332475     2.7372240805     0.5248430556
Bq         1.0424694284     2.8420167809     0.6188060654
Bq         1.0714213344     2.8321898108     0.4211568363
Bq         1.0279934753     2.8469302660     0.7176306800
Bq         1.0858972875     2.8272763257     0.3223322217
Bq         1.0135175223     2.8518437511     0.8164552946
Bq         1.1003732405     2.8223628406     0.2235076071
Bq         0.9990415692     2.8567572362     0.9152799092
Bq         1.1148491936     2.8174493555     0.1246829925
Bq         0.9845656162     2.8616707213     1.0141045238
Bq         1.1293251466     2.8125358704     0.0258583779
Bq         1.0569453814     2.8371032959     0.5199814508
Bq         1.0431815623     2.9418959963     0.6139444607
Bq         1.0721334684     2.9320690261     0.4162952315
Bq         1.0287056093     2.9468094814     0.7127690752
Bq         1.0866094214     2.9271555411     0.3174706169
Bq         1.0142296562     2.9517229665     0.8115936898
Bq         1.1010853745     2.9222420560     0.2186460023
Bq         0.9997537032     2.9566364516     0.9104183044
Bq         1.1155613275     2.9173285709     0.1198213877
Bq         0.9852777501     2.9615499366     1.0092429190
Bq         1.1300372806     2.9124150858     0.0209967731
Bq         1.0576575153     2.9369825112     0.5151198461
Bq         1.0438936962     3.0417752117     0.6090828559
Bq         1.0728456023     3.0319482415     0.4114336267
Bq         1.0294177432     3.0466886968     0.7079074705
Bq         1.0873215554     3.0270347564     0.3126090121
Bq         1.0149417902     3.0516021819     0.8067320851
Bq         1.1017975084     3.0221212714     0.2137843976

1
2
3
4
5
6
7
8
9
10
11
12
13
14
15
16
17
18
19
20
21
22
23
24
25
26
27
28
29
30
31
32
33
34
35
36
37
38
39
40
41
42
43
44
45
46
47
48
49
50
51
52
53
54
55
56
57
58
59
60
61
62
63
64
65
66
67
68
69
70
71
72
73
74
75
76
77
78
79
80
81
82
83
84
85
86
87
88
89
90
91
92
93
94
95
96
97
98
99
100
101
102
103
104
105
106
107
108
109
110
111
112
113
114
115
116
117
118
119
120
121
122
123
124
125
126
127
128
129
130
131
132
133
134
135
136
137
138
139
140
141
142
143
144
145
146
147
148
149
150
151
152
153
154
155
156
157
158
159
160
161
162
163
164
165
166
167
168
169
170
171
172
173
174
175
176
177
178
179
180
181
182
183
184
185
186
187
188
189
190
191
192
193
194
195
196
197
198
199
200
201
202
203
204
205
206
207
208
209
210
211
212
213
214
215
216
217
218
219
220
221
222
223
224
225
226
227
228
229
230
231
232
233
234
235
236

