%nproc=8
%mem=1000MB
# rb3lyp/6-311+g** NMR geom=connectivity

Title

0 1
C    -4.0500558   -0.5771862    0.8136712
H    -5.0263804   -1.0082727    1.0024760
C    -3.9381552    0.6617804    0.2400876
H    -4.8252424    1.2338890   -0.0111295
C    -2.6768410    1.2433246    0.0057578
C    -1.4974121    0.5051527    0.2848253
C    -1.6508332   -0.7338728    0.9404026
H    -0.7713646   -1.2730967    1.2633753
C    -2.8898548   -1.2624035    1.1994307
H    -2.9683706   -2.2124563    1.7152676
C    -2.5773185    2.5963696   -0.4192930
H    -3.4870728    3.1412239   -0.6474055
C    -1.3741895    3.2147896   -0.4364030
H    -1.2997315    4.2742019   -0.6578144
C    -0.1719488    2.4994090   -0.1734588
C    -0.2043917    1.1018437    0.0192689
C     1.0513491    3.2042560   -0.0676222
H     1.0427344    4.2819499   -0.1896997
C     2.1942091    2.5487446    0.2579577
H     3.1168527    3.0912848    0.4334727
C     2.2216473    1.1336562    0.2934990
C     1.0486931    0.3945528    0.0302412
C     3.4483363    0.4614633    0.5573939
H     4.3095794    1.0606054    0.8334846
C     3.5427346   -0.8855926    0.4749463
H     4.4731467   -1.3939704    0.7038822
C     2.4490052   -1.6474447   -0.0196319
C     1.2150704   -1.0057258   -0.3013573
C     0.2531113   -1.7434440   -1.0216591
H    -0.6541356   -1.2535051   -1.3462847
C     0.4494193   -3.0628597   -1.3413779
H    -0.3083162   -3.5944309   -1.9054060
C     1.6251726   -3.7207967   -0.9552541
H     1.7670048   -4.7687404   -1.1927019
C     2.6109872   -3.0144177   -0.3183050
H     3.5525612   -3.4902813   -0.0646367
Bq        -0.2439305020     1.7166246084     0.5824474632
Bq        -0.2362465393     1.6675259737     0.3887201270
Bq        -0.2477724833     1.7411739258     0.6793111313
Bq        -0.2324045580     1.6429766563     0.2918564589
Bq        -0.2516144646     1.7657232432     0.7761747994
Bq        -0.2285625767     1.6184273389     0.1949927908
Bq        -0.2554564460     1.7902725606     0.8730384675
Bq        -0.2247205953     1.5938780216     0.0981291227
Bq        -0.2592984273     1.8148218779     0.9699021356
Bq        -0.2208786140     1.5693287042     0.0012654547
Bq        -0.2400885207     1.6920752911     0.4855837951
Bq        -0.2429575478     1.8135644404     0.5579174338
Bq        -0.2352735851     1.7644658056     0.3641900976
Bq        -0.2467995291     1.8381137578     0.6547811019
Bq        -0.2314316038     1.7399164882     0.2673264295
Bq        -0.2506415104     1.8626630751     0.7516447699
Bq        -0.2275896224     1.7153671709     0.1704627614
Bq        -0.2544834917     1.8872123925     0.8485084380
Bq        -0.2237476411     1.6908178535     0.0735990933
Bq        -0.2583254731     1.9117617099     0.9453721061
Bq        -0.2199056598     1.6662685361    -0.0232645748
Bq        -0.2391155664     1.7890151230     0.4610537657
Bq        -0.2419845935     1.9105042723     0.5333874043
Bq        -0.2343006309     1.8614056376     0.3396600682
Bq        -0.2458265749     1.9350535897     0.6302510724
Bq        -0.2304586495     1.8368563202     0.2427964001
Bq        -0.2496685562     1.9596029071     0.7271147405
Bq        -0.2266166682     1.8123070028     0.1459327320
Bq        -0.2535105375     1.9841522244     0.8239784086
Bq        -0.2227746869     1.7877576854     0.0490690639
Bq        -0.2573525189     2.0087015418     0.9208420767
Bq        -0.2189327056     1.7632083681    -0.0477946042
Bq        -0.2381426122     1.8859549549     0.4365237362
Bq        -0.2410116393     2.0074441043     0.5088573749
Bq        -0.2333276767     1.9583454695     0.3151300387
Bq        -0.2448536206     2.0319934216     0.6057210430
Bq        -0.2294856953     1.9337961521     0.2182663706
Bq        -0.2486956020     2.0565427390     0.7025847111
Bq        -0.2256437140     1.9092468348     0.1214027025
Bq        -0.2525375833     2.0810920564     0.7994483792
Bq        -0.2218017327     1.8846975174     0.0245390345
Bq        -0.2563795646     2.1056413738     0.8963120473
Bq        -0.2179597513     1.8601482000    -0.0723246336
Bq        -0.2371696580     1.9828947869     0.4119937068
Bq        -0.2400386851     2.1043839362     0.4843273455
Bq        -0.2323547224     2.0552853014     0.2906000093
Bq        -0.2438806664     2.1289332536     0.5811910136
Bq        -0.2285127411     2.0307359841     0.1937363412
Bq        -0.2477226477     2.1534825709     0.6780546817
Bq        -0.2246707598     2.0061866667     0.0968726731
Bq        -0.2515646291     2.1780318883     0.7749183498
Bq        -0.2208287784     1.9816373493     0.0000090050
Bq        -0.2554066104     2.2025812057     0.8717820178
Bq        -0.2169867971     1.9570880319    -0.0968546631
Bq        -0.2361967038     2.0798346188     0.3874636774
Bq        -0.2390657309     2.2013237681     0.4597973161
Bq        -0.2313817682     2.1522251334     0.2660699799
Bq        -0.2429077122     2.2258730855     0.5566609841
Bq        -0.2275397869     2.1276758160     0.1692063118
Bq        -0.2467496935     2.2504224029     0.6535246522
Bq        -0.2236978055     2.1031264986     0.0723426437
Bq        -0.2505916749     2.2749717203     0.7503883203
Bq        -0.2198558242     2.0785771813    -0.0245210244
Bq        -0.2544336562     2.2995210376     0.8472519884
Bq        -0.2160138429     2.0540278639    -0.1213846925
Bq        -0.2352237495     2.1767744508     0.3629336480
Bq        -0.2380927766     2.2982636001     0.4352672866
Bq        -0.2304088140     2.2491649653     0.2415399504
Bq        -0.2419347580     2.3228129174     0.5321309547
Bq        -0.2265668327     2.2246156479     0.1446762824
Bq        -0.2457767393     2.3473622348     0.6289946228
Bq        -0.2227248513     2.2000663306     0.0478126143
Bq        -0.2496187206     2.3719115522     0.7258582909
Bq        -0.2188828700     2.1755170132    -0.0490510538
Bq        -0.2534607020     2.3964608696     0.8227219590
Bq        -0.2150408887     2.1509676958    -0.1459147219
Bq        -0.2342507953     2.2737142827     0.3384036185
Bq        -0.2371198224     2.3952034320     0.4107372572
Bq        -0.2294358598     2.3461047973     0.2170099210
Bq        -0.2409618037     2.4197527494     0.5076009253
Bq        -0.2255938784     2.3215554799     0.1201462529
Bq        -0.2448037851     2.4443020668     0.6044645934
Bq        -0.2217518971     2.2970061625     0.0232825848
Bq        -0.2486457664     2.4688513841     0.7013282615
Bq        -0.2179099158     2.2724568451    -0.0735810832
Bq        -0.2524877477     2.4934007015     0.7981919296
Bq        -0.2140679344     2.2479075278    -0.1704447513
Bq        -0.2332778411     2.3706541146     0.3138735891
Bq        -0.2361468682     2.4921432640     0.3862072278
Bq        -0.2284629055     2.4430446292     0.1924798916
Bq        -0.2399888495     2.5166925813     0.4830708959
Bq        -0.2246209242     2.4184953118     0.0956162235
Bq        -0.2438308308     2.5412418987     0.5799345640
Bq        -0.2207789429     2.3939459944    -0.0012474446
Bq        -0.2476728122     2.5657912161     0.6767982320
Bq        -0.2169369615     2.3693966771    -0.0981111127
Bq        -0.2515147935     2.5903405335     0.7736619001
Bq        -0.2130949802     2.3448473597    -0.1949747808
Bq        -0.2323048869     2.4675939466     0.2893435597
Bq        -0.2351739140     2.5890830959     0.3616771983
Bq        -0.2274899513     2.5399844611     0.1679498622
Bq        -0.2390158953     2.6136324133     0.4585408664
Bq        -0.2236479700     2.5154351438     0.0710861941
Bq        -0.2428578766     2.6381817306     0.5554045345
Bq        -0.2198059886     2.4908858264    -0.0257774740
Bq        -0.2466998580     2.6627310480     0.6522682026
Bq        -0.2159640073     2.4663365090    -0.1226411421
Bq        -0.2505418393     2.6872803654     0.7491318707
Bq        -0.2121220260     2.4417871916    -0.2195048102
Bq        -0.2313319326     2.5645337785     0.2648135303
Bq        -0.2342009597     2.6860229278     0.3371471689
Bq        -0.2265169971     2.6369242931     0.1434198327
Bq        -0.2380429411     2.7105722452     0.4340108370
Bq        -0.2226750158     2.6123749757     0.0465561646
Bq        -0.2418849224     2.7351215626     0.5308745051
Bq        -0.2188330344     2.5878256583    -0.0503075034
Bq        -0.2457269037     2.7596708800     0.6277381732
Bq        -0.2149910531     2.5632763409    -0.1471711715
Bq        -0.2495688851     2.7842201973     0.7246018413
Bq        -0.2111490718     2.5387270236    -0.2440348396
Bq        -0.2303589784     2.6614736105     0.2402835008
Bq        -0.2332280055     2.7829627598     0.3126171395
Bq        -0.2255440429     2.7338641250     0.1188898033
Bq        -0.2370699868     2.8075120771     0.4094808076
Bq        -0.2217020615     2.7093148076     0.0220261352
Bq        -0.2409119682     2.8320613945     0.5063444757
Bq        -0.2178600802     2.6847654903    -0.0748375329
Bq        -0.2447539495     2.8566107119     0.6032081438
Bq        -0.2140180989     2.6602161729    -0.1717012010
Bq        -0.2485959308     2.8811600293     0.7000718119
Bq        -0.2101761175     2.6356668555    -0.2685648690
Bq        -0.2293860242     2.7584134424     0.2157534714
Bq        -0.2322550513     2.8799025917     0.2880871101
Bq        -0.2245710886     2.8308039570     0.0943597739
Bq        -0.2360970326     2.9044519091     0.3849507782
Bq        -0.2207291073     2.8062546396    -0.0025038942
Bq        -0.2399390140     2.9290012265     0.4818144462
Bq        -0.2168871260     2.7817053222    -0.0993675623
Bq        -0.2437809953     2.9535505438     0.5786781143
Bq        -0.2130451446     2.7571560048    -0.1962312304
Bq        -0.2476229766     2.9780998612     0.6755417824
Bq        -0.2092031633     2.7326066875    -0.2930948985
Bq        -0.2284130700     2.8553532743     0.1912234420
Bq        -0.2312820971     2.9768424236     0.2635570806
Bq        -0.2235981344     2.9277437889     0.0698297445
Bq        -0.2351240784     3.0013917410     0.3604207487
Bq        -0.2197561531     2.9031944715    -0.0270339236
Bq        -0.2389660597     3.0259410584     0.4572844168
Bq        -0.2159141718     2.8786451541    -0.1238975917
Bq        -0.2428080411     3.0504903758     0.5541480849
Bq        -0.2120721904     2.8540958368    -0.2207612598
Bq        -0.2466500224     3.0750396931     0.6510117530
Bq        -0.2082302091     2.8295465194    -0.3176249279
Bq        -0.2274401157     2.9522931063     0.1666934125
Bq        -0.2303091428     3.0737822556     0.2390270512
Bq        -0.2226251802     3.0246836208     0.0452997150
Bq        -0.2341511242     3.0983315730     0.3358907193
Bq        -0.2187831989     3.0001343035    -0.0515639531
Bq        -0.2379931055     3.1228808903     0.4327543874
Bq        -0.2149412175     2.9755849861    -0.1484276211
Bq        -0.2418350868     3.1474302077     0.5296180555
Bq        -0.2110992362     2.9510356687    -0.2452912892
Bq        -0.2456770682     3.1719795251     0.6264817236
Bq        -0.2072572549     2.9264863513    -0.3421549573
Bq        -0.2264671615     3.0492329382     0.1421633831
Bq        -0.2293361886     3.1707220875     0.2144970218
Bq        -0.2216522260     3.1216234528     0.0207696856
Bq        -0.2331781699     3.1952714049     0.3113606899
Bq        -0.2178102446     3.0970741354    -0.0760939825
Bq        -0.2370201513     3.2198207223     0.4082243580
Bq        -0.2139682633     3.0725248180    -0.1729576506
Bq        -0.2408621326     3.2443700397     0.5050880261
Bq        -0.2101262820     3.0479755006    -0.2698213187
Bq        -0.2447041139     3.2689193570     0.6019516941
Bq        -0.2062843006     3.0234261833    -0.3666849868
Bq        -0.2254942073     3.1461727701     0.1176333537
Bq        -0.2283632344     3.2676619195     0.1899669924
Bq        -0.2206792717     3.2185632847    -0.0037603438
Bq        -0.2322052157     3.2922112368     0.2868306604
Bq        -0.2168372904     3.1940139673    -0.1006240119
Bq        -0.2360471971     3.3167605542     0.3836943285
Bq        -0.2129953091     3.1694646500    -0.1974876800
Bq        -0.2398891784     3.3413098716     0.4805579966
Bq        -0.2091533277     3.1449153326    -0.2943513481
Bq        -0.2437311597     3.3658591890     0.5774216647
Bq        -0.2053113464     3.1203660152    -0.3912150162
Bq        -0.2245212531     3.2431126021     0.0931033243
Bq        -0.2273902802     3.3646017514     0.1654369629
Bq        -0.2197063175     3.3155031167    -0.0282903733
Bq        -0.2312322615     3.3891510688     0.2623006310
Bq        -0.2158643362     3.2909537993    -0.1251540413
Bq        -0.2350742428     3.4137003862     0.3591642991
Bq        -0.2120223549     3.2664044819    -0.2220177094
Bq        -0.2389162242     3.4382497035     0.4560279672
Bq        -0.2081803735     3.2418551645    -0.3188813775
Bq        -0.2427582055     3.4627990209     0.5528916353
Bq        -0.2043383922     3.2173058471    -0.4157450456
Bq        -0.2235482988     3.3400524340     0.0685732948
Bq        -0.2264173259     3.4615415833     0.1409069335
Bq        -0.2187333633     3.4124429486    -0.0528204027

1
2
3
4
5
6
7
8
9
10
11
12
13
14
15
16
17
18
19
20
21
22
23
24
25
26
27
28
29
30
31
32
33
34
35
36
37
38
39
40
41
42
43
44
45
46
47
48
49
50
51
52
53
54
55
56
57
58
59
60
61
62
63
64
65
66
67
68
69
70
71
72
73
74
75
76
77
78
79
80
81
82
83
84
85
86
87
88
89
90
91
92
93
94
95
96
97
98
99
100
101
102
103
104
105
106
107
108
109
110
111
112
113
114
115
116
117
118
119
120
121
122
123
124
125
126
127
128
129
130
131
132
133
134
135
136
137
138
139
140
141
142
143
144
145
146
147
148
149
150
151
152
153
154
155
156
157
158
159
160
161
162
163
164
165
166
167
168
169
170
171
172
173
174
175
176
177
178
179
180
181
182
183
184
185
186
187
188
189
190
191
192
193
194
195
196
197
198
199
200
201
202
203
204
205
206
207
208
209
210
211
212
213
214
215
216
217
218
219
220
221
222
223
224
225
226
227
228
229
230
231
232
233
234
235
236

