%nproc=8
%mem=1000MB
# rb3lyp/6-311+g** NMR geom=connectivity

Title

0 1
C    -4.0500558   -0.5771862    0.8136712
H    -5.0263804   -1.0082727    1.0024760
C    -3.9381552    0.6617804    0.2400876
H    -4.8252424    1.2338890   -0.0111295
C    -2.6768410    1.2433246    0.0057578
C    -1.4974121    0.5051527    0.2848253
C    -1.6508332   -0.7338728    0.9404026
H    -0.7713646   -1.2730967    1.2633753
C    -2.8898548   -1.2624035    1.1994307
H    -2.9683706   -2.2124563    1.7152676
C    -2.5773185    2.5963696   -0.4192930
H    -3.4870728    3.1412239   -0.6474055
C    -1.3741895    3.2147896   -0.4364030
H    -1.2997315    4.2742019   -0.6578144
C    -0.1719488    2.4994090   -0.1734588
C    -0.2043917    1.1018437    0.0192689
C     1.0513491    3.2042560   -0.0676222
H     1.0427344    4.2819499   -0.1896997
C     2.1942091    2.5487446    0.2579577
H     3.1168527    3.0912848    0.4334727
C     2.2216473    1.1336562    0.2934990
C     1.0486931    0.3945528    0.0302412
C     3.4483363    0.4614633    0.5573939
H     4.3095794    1.0606054    0.8334846
C     3.5427346   -0.8855926    0.4749463
H     4.4731467   -1.3939704    0.7038822
C     2.4490052   -1.6474447   -0.0196319
C     1.2150704   -1.0057258   -0.3013573
C     0.2531113   -1.7434440   -1.0216591
H    -0.6541356   -1.2535051   -1.3462847
C     0.4494193   -3.0628597   -1.3413779
H    -0.3083162   -3.5944309   -1.9054060
C     1.6251726   -3.7207967   -0.9552541
H     1.7670048   -4.7687404   -1.1927019
C     2.6109872   -3.0144177   -0.3183050
H     3.5525612   -3.4902813   -0.0646367
Bq        -2.0850848799    -0.2103895440     0.8939961311
Bq        -2.0875628489     0.0939894750     1.5243510093
Bq        -2.0847308843    -0.2538722610     0.8039454342
Bq        -2.0879168445     0.1374721920     1.6144017062
Bq        -2.0843768888    -0.2973549780     0.7138947374
Bq        -2.0861468666    -0.0799413930     1.1641482218
Bq        -2.0863299299     0.0535927167     1.2107165376
Bq        -2.0856219388    -0.0333727173     1.0306151439
Bq        -2.0866839255     0.0970754337     1.3007672345
Bq        -2.0852679432    -0.0768554343     0.9405644470
Bq        -2.0870379211     0.1405581507     1.3908179314
Bq        -2.0849139476    -0.1203381513     0.8505137501
Bq        -2.0873919166     0.1840408677     1.4808686283
Bq        -2.0845599521    -0.1638208683     0.7604630532
Bq        -2.0877459122     0.2275235847     1.5709193252
Bq        -2.0842059565    -0.2073035853     0.6704123563
Bq        -2.0859759344     0.0101099997     1.1206658407
Bq        -2.0861589977     0.1436441094     1.1672341566
Bq        -2.0854510065     0.0566786753     0.9871327628
Bq        -2.0865129932     0.1871268264     1.2572848535
Bq        -2.0850970109     0.0131959583     0.8970820659
Bq        -2.0868669888     0.2306095434     1.3473355504
Bq        -2.0847430154    -0.0302867587     0.8070313691
Bq        -2.0872209844     0.2740922604     1.4373862472
Bq        -2.0843890198    -0.0737694757     0.7169806722
Bq        -2.0875749799     0.3175749774     1.5274369441
Bq        -2.0840350242    -0.1172521927     0.6269299753
Bq        -2.0858050021     0.1001613924     1.0771834597
Bq        -2.0859880654     0.2336955020     1.1237517756
Bq        -2.0852800742     0.1467300680     0.9436503818
Bq        -2.0863420610     0.2771782190     1.2138024724
Bq        -2.0849260787     0.1032473510     0.8535996849
Bq        -2.0866960565     0.3206609360     1.3038531693
Bq        -2.0845720831     0.0597646340     0.7635489880
Bq        -2.0870500521     0.3641436530     1.3939038662
Bq        -2.0842180875     0.0162819170     0.6734982911
Bq        -2.0874040477     0.4076263700     1.4839545631
Bq        -2.0838640919    -0.0272008000     0.5834475943
Bq        -2.0856340698     0.1902127850     1.0337010787
Bq        -2.0858171331     0.3237468947     1.0802693945
Bq        -2.0851091420     0.2367814607     0.9001680008
Bq        -2.0861711287     0.3672296117     1.1703200914
Bq        -2.0847551464     0.1932987437     0.8101173039
Bq        -2.0865251243     0.4107123287     1.2603707883
Bq        -2.0844011508     0.1498160267     0.7200666070
Bq        -2.0868791198     0.4541950457     1.3504214852
Bq        -2.0840471552     0.1063333097     0.6300159101
Bq        -2.0872331154     0.4976777627     1.4404721821
Bq        -2.0836931597     0.0628505927     0.5399652132
Bq        -2.0854631375     0.2802641777     0.9902186976
Bq        -2.0856462008     0.4137982874     1.0367870135
Bq        -2.0849382097     0.3268328534     0.8566856197
Bq        -2.0860001964     0.4572810044     1.1268377104
Bq        -2.0845842141     0.2833501364     0.7666349228
Bq        -2.0863541920     0.5007637214     1.2168884073
Bq        -2.0842302185     0.2398674194     0.6765842260
Bq        -2.0867081876     0.5442464384     1.3069391041
Bq        -2.0838762230     0.1963847023     0.5865335291
Bq        -2.0870621831     0.5877291554     1.3969898010
Bq        -2.0835222274     0.1529019853     0.4964828322
Bq        -2.0852922053     0.3703155704     0.9467363166
Bq        -2.0854752686     0.5038496800     0.9933046325
Bq        -2.0847672774     0.4168842460     0.8132032387
Bq        -2.0858292641     0.5473323970     1.0833553293
Bq        -2.0844132818     0.3734015290     0.7231525418
Bq        -2.0861832597     0.5908151140     1.1734060262
Bq        -2.0840592863     0.3299188120     0.6331018449
Bq        -2.0865372553     0.6342978311     1.2634567231
Bq        -2.0837052907     0.2864360950     0.5430511480
Bq        -2.0868912509     0.6777805481     1.3535074200
Bq        -2.0833512951     0.2429533780     0.4530004512
Bq        -2.0851212730     0.4603669630     0.9032539356
Bq        -2.0853043363     0.5939010727     0.9498222514
Bq        -2.0845963451     0.5069356387     0.7697208577
Bq        -2.0856583319     0.6373837897     1.0398729483
Bq        -2.0842423496     0.4634529217     0.6796701608
Bq        -2.0860123274     0.6808665067     1.1299236452
Bq        -2.0838883540     0.4199702047     0.5896194639
Bq        -2.0863663230     0.7243492237     1.2199743421
Bq        -2.0835343584     0.3764874877     0.4995687670
Bq        -2.0867203186     0.7678319407     1.3100250390
Bq        -2.0831803628     0.3330047707     0.4095180701
Bq        -2.0849503407     0.5504183557     0.8597715545
Bq        -2.0851334040     0.6839524654     0.9063398704
Bq        -2.0844254129     0.5969870314     0.7262384766
Bq        -2.0854873996     0.7274351824     0.9963905673
Bq        -2.0840714173     0.5535043144     0.6361877797
Bq        -2.0858413952     0.7709178994     1.0864412642
Bq        -2.0837174217     0.5100215974     0.5461370829
Bq        -2.0861953907     0.8144006164     1.1764919610
Bq        -2.0833634261     0.4665388804     0.4560863860
Bq        -2.0865493863     0.8578833334     1.2665426579
Bq        -2.0830094306     0.4230561634     0.3660356891
Bq        -2.0847794084     0.6404697484     0.8162891735
Bq        -2.0849624717     0.7740038581     0.8628574894
Bq        -2.0842544806     0.6870384240     0.6827560956
Bq        -2.0853164673     0.8174865751     0.9529081862
Bq        -2.0839004850     0.6435557070     0.5927053987
Bq        -2.0856704629     0.8609692921     1.0429588831
Bq        -2.0835464894     0.6000729900     0.5026547018
Bq        -2.0860244585     0.9044520091     1.1330095800
Bq        -2.0831924939     0.5565902730     0.4126040049
Bq        -2.0863784540     0.9479347261     1.2230602769
Bq        -2.0828384983     0.5131075560     0.3225533081
Bq        -2.0846084762     0.7305211410     0.7728067925
Bq        -2.0847915395     0.8640552507     0.8193751083
Bq        -2.0840835483     0.7770898167     0.6392737146
Bq        -2.0851455350     0.9075379677     0.9094258052
Bq        -2.0837295527     0.7336070997     0.5492230177
Bq        -2.0854995306     0.9510206847     0.9994765021
Bq        -2.0833755572     0.6901243827     0.4591723208
Bq        -2.0858535262     0.9945034017     1.0895271990
Bq        -2.0830215616     0.6466416657     0.3691216239
Bq        -2.0862075218     1.0379861187     1.1795778959
Bq        -2.0826675660     0.6031589487     0.2790709270
Bq        -2.0844375439     0.8205725337     0.7293244114
Bq        -2.0846206072     0.9541066434     0.7758927273
Bq        -2.0839126160     0.8671412094     0.5957913335
Bq        -2.0849746028     0.9975893604     0.8659434242
Bq        -2.0835586205     0.8236584924     0.5057406367
Bq        -2.0853285983     1.0410720774     0.9559941211
Bq        -2.0832046249     0.7801757754     0.4156899398
Bq        -2.0856825939     1.0845547944     1.0460448179
Bq        -2.0828506293     0.7366930584     0.3256392429
Bq        -2.0860365895     1.1280375114     1.1360955148
Bq        -2.0824966337     0.6932103414     0.2355885460
Bq        -2.0842666116     0.9106239264     0.6858420304
Bq        -2.0844496749     1.0441580361     0.7324103463
Bq        -2.0837416838     0.9571926021     0.5523089525
Bq        -2.0848036705     1.0876407531     0.8224610431
Bq        -2.0833876882     0.9137098850     0.4622582556
Bq        -2.0851576661     1.1311234701     0.9125117400
Bq        -2.0830336926     0.8702271680     0.3722075587
Bq        -2.0855116616     1.1746061871     1.0025624369
Bq        -2.0826796970     0.8267444510     0.2821568619
Bq        -2.0858656572     1.2180889041     1.0926131338
Bq        -2.0823257015     0.7832617340     0.1921061650
Bq        -2.0840956793     1.0006753191     0.6423596494
Bq        -2.0842787426     1.1342094287     0.6889279652
Bq        -2.0835707515     1.0472439947     0.5088265715
Bq        -2.0846327382     1.1776921457     0.7789786621
Bq        -2.0832167559     1.0037612777     0.4187758746
Bq        -2.0849867338     1.2211748627     0.8690293590
Bq        -2.0828627603     0.9602785607     0.3287251777
Bq        -2.0853407294     1.2646575797     0.9590800559
Bq        -2.0825087648     0.9167958437     0.2386744808
Bq        -2.0856947249     1.3081402968     1.0491307528
Bq        -2.0821547692     0.8733131267     0.1486237839
Bq        -2.0839247471     1.0907267117     0.5988772684
Bq        -2.0841078104     1.2242608214     0.6454455842
Bq        -2.0833998192     1.1372953874     0.4653441904
Bq        -2.0844618059     1.2677435384     0.7354962811
Bq        -2.0830458236     1.0938126704     0.3752934936
Bq        -2.0848158015     1.3112262554     0.8255469780
Bq        -2.0826918281     1.0503299534     0.2852427967
Bq        -2.0851697971     1.3547089724     0.9155976748
Bq        -2.0823378325     1.0068472364     0.1951920998
Bq        -2.0855237927     1.3981916894     1.0056483717
Bq        -2.0819838369     0.9633645194     0.1051414029
Bq        -2.0837538148     1.1807781044     0.5553948873
Bq        -2.0839368781     1.3143122141     0.6019632032
Bq        -2.0832288869     1.2273467801     0.4218618094
Bq        -2.0842908737     1.3577949311     0.6920139001
Bq        -2.0828748914     1.1838640631     0.3318111125
Bq        -2.0846448692     1.4012776481     0.7820645969
Bq        -2.0825208958     1.1403813461     0.2417604156
Bq        -2.0849988648     1.4447603651     0.8721152938
Bq        -2.0821669002     1.0968986291     0.1517097188
Bq        -2.0853528604     1.4882430821     0.9621659907
Bq        -2.0818129046     1.0534159120     0.0616590219
Bq        -2.0835828825     1.2708294971     0.5119125063
Bq        -2.0837659458     1.4043636067     0.5584808221
Bq        -2.0830579547     1.3173981727     0.3783794284
Bq        -2.0841199414     1.4478463237     0.6485315190
Bq        -2.0827039591     1.2739154557     0.2883287315
Bq        -2.0844739370     1.4913290408     0.7385822159
Bq        -2.0823499635     1.2304327387     0.1982780346
Bq        -2.0848279325     1.5348117578     0.8286329128
Bq        -2.0819959679     1.1869500217     0.1082273377
Bq        -2.0851819281     1.5782944748     0.9186836097
Bq        -2.0816419724     1.1434673047     0.0181766408
Bq        -2.0834119502     1.3608808897     0.4684301253
Bq        -2.0835950135     1.4944149994     0.5149984411
Bq        -2.0828870224     1.4074495654     0.3348970473
Bq        -2.0839490091     1.5378977164     0.6050491380
Bq        -2.0825330268     1.3639668484     0.2448463505
Bq        -2.0843030047     1.5813804334     0.6950998349
Bq        -2.0821790312     1.3204841314     0.1547956536
Bq        -2.0846570003     1.6248631504     0.7851505318
Bq        -2.0818250357     1.2770014144     0.0647449567
Bq        -2.0850109958     1.6683458674     0.8752012286
Bq        -2.0814710401     1.2335186974    -0.0253057402
Bq        -2.0832410180     1.4509322824     0.4249477442
Bq        -2.0834240813     1.5844663921     0.4715160601
Bq        -2.0827160901     1.4975009581     0.2914146663
Bq        -2.0837780768     1.6279491091     0.5615667570
Bq        -2.0823620945     1.4540182411     0.2013639694
Bq        -2.0841320724     1.6714318261     0.6516174538
Bq        -2.0820080990     1.4105355241     0.1113132725
Bq        -2.0844860680     1.7149145431     0.7416681507

1
2
3
4
5
6
7
8
9
10
11
12
13
14
15
16
17
18
19
20
21
22
23
24
25
26
27
28
29
30
31
32
33
34
35
36
37
38
39
40
41
42
43
44
45
46
47
48
49
50
51
52
53
54
55
56
57
58
59
60
61
62
63
64
65
66
67
68
69
70
71
72
73
74
75
76
77
78
79
80
81
82
83
84
85
86
87
88
89
90
91
92
93
94
95
96
97
98
99
100
101
102
103
104
105
106
107
108
109
110
111
112
113
114
115
116
117
118
119
120
121
122
123
124
125
126
127
128
129
130
131
132
133
134
135
136
137
138
139
140
141
142
143
144
145
146
147
148
149
150
151
152
153
154
155
156
157
158
159
160
161
162
163
164
165
166
167
168
169
170
171
172
173
174
175
176
177
178
179
180
181
182
183
184
185
186
187
188
189
190
191
192
193
194
195
196
197
198
199
200
201
202
203
204
205
206
207
208
209
210
211
212
213
214
215
216
217
218
219
220
221
222
223
224
225
226
227
228
229
230
231
232
233
234
235
236

