%nproc=8
%mem=1000MB
# rb3lyp/6-311+g** NMR geom=connectivity

Title

0 1
C    -4.0500558   -0.5771862    0.8136712
H    -5.0263804   -1.0082727    1.0024760
C    -3.9381552    0.6617804    0.2400876
H    -4.8252424    1.2338890   -0.0111295
C    -2.6768410    1.2433246    0.0057578
C    -1.4974121    0.5051527    0.2848253
C    -1.6508332   -0.7338728    0.9404026
H    -0.7713646   -1.2730967    1.2633753
C    -2.8898548   -1.2624035    1.1994307
H    -2.9683706   -2.2124563    1.7152676
C    -2.5773185    2.5963696   -0.4192930
H    -3.4870728    3.1412239   -0.6474055
C    -1.3741895    3.2147896   -0.4364030
H    -1.2997315    4.2742019   -0.6578144
C    -0.1719488    2.4994090   -0.1734588
C    -0.2043917    1.1018437    0.0192689
C     1.0513491    3.2042560   -0.0676222
H     1.0427344    4.2819499   -0.1896997
C     2.1942091    2.5487446    0.2579577
H     3.1168527    3.0912848    0.4334727
C     2.2216473    1.1336562    0.2934990
C     1.0486931    0.3945528    0.0302412
C     3.4483363    0.4614633    0.5573939
H     4.3095794    1.0606054    0.8334846
C     3.5427346   -0.8855926    0.4749463
H     4.4731467   -1.3939704    0.7038822
C     2.4490052   -1.6474447   -0.0196319
C     1.2150704   -1.0057258   -0.3013573
C     0.2531113   -1.7434440   -1.0216591
H    -0.6541356   -1.2535051   -1.3462847
C     0.4494193   -3.0628597   -1.3413779
H    -0.3083162   -3.5944309   -1.9054060
C     1.6251726   -3.7207967   -0.9552541
H     1.7670048   -4.7687404   -1.1927019
C     2.6109872   -3.0144177   -0.3183050
H     3.5525612   -3.4902813   -0.0646367
Bq        -2.8728727581    -0.1485240782     1.2605941955
Bq        -2.8421369075    -0.3449186172     0.4856848508
Bq        -2.8767147394    -0.1239747608     1.3574578636
Bq        -2.8382949262    -0.3694679346     0.3888211827
Bq        -2.8575048328    -0.2467213477     0.8731395232
Bq        -2.8603738599    -0.1252321984     0.9454731618
Bq        -2.8526898972    -0.1743308332     0.7517458257
Bq        -2.8642158412    -0.1006828810     1.0423368299
Bq        -2.8488479159    -0.1988801505     0.6548821576
Bq        -2.8680578226    -0.0761335637     1.1392004980
Bq        -2.8450059346    -0.2234294679     0.5580184895
Bq        -2.8718998039    -0.0515842463     1.2360641661
Bq        -2.8411639533    -0.2479787853     0.4611548214
Bq        -2.8757417852    -0.0270349289     1.3329278342
Bq        -2.8373219719    -0.2725281027     0.3642911533
Bq        -2.8565318786    -0.1497815158     0.8486094937
Bq        -2.8594009057    -0.0282923665     0.9209431324
Bq        -2.8517169430    -0.0773910012     0.7272157962
Bq        -2.8632428870    -0.0037430491     1.0178068005
Bq        -2.8478749617    -0.1019403186     0.6303521281
Bq        -2.8670848683     0.0208062683     1.1146704686
Bq        -2.8440329804    -0.1264896360     0.5334884601
Bq        -2.8709268497     0.0453555857     1.2115341367
Bq        -2.8401909990    -0.1510389533     0.4366247920
Bq        -2.8747688310     0.0699049030     1.3083978048
Bq        -2.8363490177    -0.1755882707     0.3397611239
Bq        -2.8555589244    -0.0528416838     0.8240794643
Bq        -2.8584279515     0.0686474655     0.8964131030
Bq        -2.8507439888     0.0195488307     0.7026857668
Bq        -2.8622699328     0.0931967828     0.9932767711
Bq        -2.8469020075    -0.0050004867     0.6058220987
Bq        -2.8661119141     0.1177461002     1.0901404392
Bq        -2.8430600261    -0.0295498040     0.5089584306
Bq        -2.8699538954     0.1422954176     1.1870041073
Bq        -2.8392180448    -0.0540991214     0.4120947625
Bq        -2.8737958768     0.1668447350     1.2838677753
Bq        -2.8353760635    -0.0786484388     0.3152310944
Bq        -2.8545859701     0.0440981481     0.7995494349
Bq        -2.8574549972     0.1655872974     0.8718830736
Bq        -2.8497710346     0.1164886627     0.6781557374
Bq        -2.8612969786     0.1901366148     0.9687467416
Bq        -2.8459290532     0.0919393453     0.5812920693
Bq        -2.8651389599     0.2146859322     1.0656104097
Bq        -2.8420870719     0.0673900279     0.4844284012
Bq        -2.8689809412     0.2392352495     1.1624740778
Bq        -2.8382450906     0.0428407105     0.3875647331
Bq        -2.8728229225     0.2637845669     1.2593377459
Bq        -2.8344031093     0.0182913932     0.2907010650
Bq        -2.8536130159     0.1410379800     0.7750194055
Bq        -2.8564820430     0.2625271294     0.8473530441
Bq        -2.8487980804     0.2134284946     0.6536257080
Bq        -2.8603240243     0.2870764467     0.9442167122
Bq        -2.8449560990     0.1888791772     0.5567620399
Bq        -2.8641660057     0.3116257641     1.0410803803
Bq        -2.8411141177     0.1643298598     0.4598983718
Bq        -2.8680079870     0.3361750815     1.1379440484
Bq        -2.8372721364     0.1397805425     0.3630347037
Bq        -2.8718499683     0.3607243989     1.2348077165
Bq        -2.8334301550     0.1152312251     0.2661710356
Bq        -2.8526400617     0.2379778120     0.7504893760
Bq        -2.8555090888     0.3594669613     0.8228230147
Bq        -2.8478251261     0.3103683265     0.6290956785
Bq        -2.8593510701     0.3840162787     0.9196866828
Bq        -2.8439831448     0.2858190092     0.5322320104
Bq        -2.8631930514     0.4085655960     1.0165503509
Bq        -2.8401411635     0.2612696918     0.4353683423
Bq        -2.8670350328     0.4331149134     1.1134140190
Bq        -2.8362991821     0.2367203744     0.3385046743
Bq        -2.8708770141     0.4576642308     1.2102776871
Bq        -2.8324572008     0.2121710570     0.2416410062
Bq        -2.8516671075     0.3349176439     0.7259593466
Bq        -2.8545361346     0.4564067932     0.7982929853
Bq        -2.8468521719     0.4073081585     0.6045656491
Bq        -2.8583781159     0.4809561106     0.8951566534
Bq        -2.8430101906     0.3827588411     0.5077019810
Bq        -2.8622200972     0.5055054280     0.9920203215
Bq        -2.8391682092     0.3582095237     0.4108383129
Bq        -2.8660620785     0.5300547454     1.0888839895
Bq        -2.8353262279     0.3336602064     0.3139746448
Bq        -2.8699040599     0.5546040627     1.1857476576
Bq        -2.8314842466     0.3091108890     0.2171109767
Bq        -2.8506941532     0.4318574759     0.7014293172
Bq        -2.8535631803     0.5533466252     0.7737629558
Bq        -2.8458792177     0.5042479904     0.5800356197
Bq        -2.8574051617     0.5778959425     0.8706266239
Bq        -2.8420372363     0.4796986730     0.4831719516
Bq        -2.8612471430     0.6024452599     0.9674902920
Bq        -2.8381952550     0.4551493557     0.3863082835
Bq        -2.8650891243     0.6269945773     1.0643539601
Bq        -2.8343532737     0.4306000383     0.2894446154
Bq        -2.8689311057     0.6515438947     1.1612176282
Bq        -2.8305112924     0.4060507209     0.1925809473
Bq        -2.8497211990     0.5287973078     0.6768992878
Bq        -2.8525902261     0.6502864571     0.7492329264
Bq        -2.8449062635     0.6011878224     0.5555055902
Bq        -2.8564322074     0.6748357745     0.8460965945
Bq        -2.8410642821     0.5766385050     0.4586419222
Bq        -2.8602741888     0.6993850919     0.9429602626
Bq        -2.8372223008     0.5520891876     0.3617782541
Bq        -2.8641161701     0.7239344092     1.0398239307
Bq        -2.8333803195     0.5275398702     0.2649145860
Bq        -2.8679581514     0.7484837266     1.1366875988
Bq        -2.8295383381     0.5029905529     0.1680509179
Bq        -2.8487482448     0.6257371397     0.6523692583
Bq        -2.8516172719     0.7472262890     0.7247028970
Bq        -2.8439333092     0.6981276543     0.5309755608
Bq        -2.8554592532     0.7717756064     0.8215665651
Bq        -2.8400913279     0.6735783369     0.4341118927
Bq        -2.8593012345     0.7963249238     0.9184302332
Bq        -2.8362493466     0.6490290195     0.3372482246
Bq        -2.8631432159     0.8208742412     1.0152939013
Bq        -2.8324073652     0.6244797022     0.2403845565
Bq        -2.8669851972     0.8454235585     1.1121575694
Bq        -2.8285653839     0.5999303848     0.1435208885
Bq        -2.8477752906     0.7226769717     0.6278392289
Bq        -2.8506443177     0.8441661210     0.7001728676
Bq        -2.8429603550     0.7950674862     0.5064455314
Bq        -2.8544862990     0.8687154384     0.7970365357
Bq        -2.8391183737     0.7705181689     0.4095818633
Bq        -2.8583282803     0.8932647557     0.8939002037
Bq        -2.8352763923     0.7459688515     0.3127181952
Bq        -2.8621702616     0.9178140731     0.9907638718
Bq        -2.8314344110     0.7214195341     0.2158545271
Bq        -2.8660122430     0.9423633905     1.0876275399
Bq        -2.8275924297     0.6968702167     0.1189908590
Bq        -2.8468023363     0.8196168036     0.6033091995
Bq        -2.8496713634     0.9411059529     0.6756428381
Bq        -2.8419874008     0.8920073182     0.4819155020
Bq        -2.8535133448     0.9656552703     0.7725065062
Bq        -2.8381454195     0.8674580008     0.3850518339
Bq        -2.8573553261     0.9902045877     0.8693701743
Bq        -2.8343034381     0.8429086834     0.2881881658
Bq        -2.8611973074     1.0147539051     0.9662338424
Bq        -2.8304614568     0.8183593660     0.1913244977
Bq        -2.8650392888     1.0393032224     1.0630975105
Bq        -2.8266194755     0.7938100487     0.0944608296
Bq        -2.8458293821     0.9165566355     0.5787791701
Bq        -2.8486984092     1.0380457849     0.6511128087
Bq        -2.8410144466     0.9889471501     0.4573854725
Bq        -2.8525403905     1.0625951022     0.7479764768
Bq        -2.8371724652     0.9643978327     0.3605218044
Bq        -2.8563823719     1.0871444196     0.8448401449
Bq        -2.8333304839     0.9398485154     0.2636581364
Bq        -2.8602243532     1.1116937370     0.9417038130
Bq        -2.8294885026     0.9152991980     0.1667944683
Bq        -2.8640663345     1.1362430544     1.0385674811
Bq        -2.8256465212     0.8907498806     0.0699308002
Bq        -2.8448564279     1.0134964675     0.5542491406
Bq        -2.8477254550     1.1349856168     0.6265827793
Bq        -2.8400414923     1.0858869821     0.4328554431
Bq        -2.8515674363     1.1595349342     0.7234464474
Bq        -2.8361995110     1.0613376647     0.3359917750
Bq        -2.8554094176     1.1840842516     0.8203101155
Bq        -2.8323575297     1.0367883473     0.2391281069
Bq        -2.8592513990     1.2086335689     0.9171737836
Bq        -2.8285155483     1.0122390299     0.1422644388
Bq        -2.8630933803     1.2331828863     1.0140374516
Bq        -2.8246735670     0.9876897125     0.0454007707
Bq        -2.8438834737     1.1104362994     0.5297191112
Bq        -2.8467525008     1.2319254487     0.6020527499
Bq        -2.8390685381     1.1828268140     0.4083254137
Bq        -2.8505944821     1.2564747661     0.6989164179
Bq        -2.8352265568     1.1582774966     0.3114617456
Bq        -2.8544364634     1.2810240835     0.7957800860
Bq        -2.8313845754     1.1337281792     0.2145980775
Bq        -2.8582784448     1.3055734009     0.8926437541
Bq        -2.8275425941     1.1091788619     0.1177344094
Bq        -2.8621204261     1.3301227182     0.9895074222
Bq        -2.8237006128     1.0846295445     0.0208707413
Bq        -2.8429105194     1.2073761314     0.5051890818
Bq        -2.8457795465     1.3288652807     0.5775227204
Bq        -2.8380955839     1.2797666459     0.3837953843
Bq        -2.8496215279     1.3534145981     0.6743863885
Bq        -2.8342536026     1.2552173286     0.2869317162
Bq        -2.8534635092     1.3779639154     0.7712500566
Bq        -2.8304116212     1.2306680112     0.1900680481
Bq        -2.8573054905     1.4025132328     0.8681137247
Bq        -2.8265696399     1.2061186938     0.0932043800
Bq        -2.8611474719     1.4270625502     0.9649773928
Bq        -2.8227276586     1.1815693764    -0.0036592881
Bq        -2.8419375652     1.3043159633     0.4806590523
Bq        -2.8448065923     1.4258051126     0.5529926910
Bq        -2.8371226297     1.3767064779     0.3592653548
Bq        -2.8486485736     1.4503544300     0.6498563591
Bq        -2.8332806483     1.3521571605     0.2624016867
Bq        -2.8524905550     1.4749037474     0.7467200272
Bq        -2.8294386670     1.3276078431     0.1655380186
Bq        -2.8563325363     1.4994530647     0.8435836953
Bq        -2.8255966857     1.3030585257     0.0686743506
Bq        -2.8601745176     1.5240023821     0.9404473634
Bq        -2.8217547043     1.2785092084    -0.0281893175
Bq        -2.8409646110     1.4012557952     0.4561290229
Bq        -2.8438336381     1.5227449446     0.5284626616
Bq        -2.8361496754     1.4736463098     0.3347353254
Bq        -2.8476756194     1.5472942619     0.6253263297
Bq        -2.8323076941     1.4490969924     0.2378716573
Bq        -2.8515176007     1.5718435793     0.7221899978
Bq        -2.8284657128     1.4245476751     0.1410079892
Bq        -2.8553595821     1.5963928967     0.8190536658
Bq        -2.8246237314     1.3999983577     0.0441443211

1
2
3
4
5
6
7
8
9
10
11
12
13
14
15
16
17
18
19
20
21
22
23
24
25
26
27
28
29
30
31
32
33
34
35
36
37
38
39
40
41
42
43
44
45
46
47
48
49
50
51
52
53
54
55
56
57
58
59
60
61
62
63
64
65
66
67
68
69
70
71
72
73
74
75
76
77
78
79
80
81
82
83
84
85
86
87
88
89
90
91
92
93
94
95
96
97
98
99
100
101
102
103
104
105
106
107
108
109
110
111
112
113
114
115
116
117
118
119
120
121
122
123
124
125
126
127
128
129
130
131
132
133
134
135
136
137
138
139
140
141
142
143
144
145
146
147
148
149
150
151
152
153
154
155
156
157
158
159
160
161
162
163
164
165
166
167
168
169
170
171
172
173
174
175
176
177
178
179
180
181
182
183
184
185
186
187
188
189
190
191
192
193
194
195
196
197
198
199
200
201
202
203
204
205
206
207
208
209
210
211
212
213
214
215
216
217
218
219
220
221
222
223
224
225
226
227
228
229
230
231
232
233
234
235
236

