%nproc=8
%mem=1000MB
# rb3lyp/6-311+g** NMR geom=connectivity

Title

0 1
C    -4.0500558   -0.5771862    0.8136712
H    -5.0263804   -1.0082727    1.0024760
C    -3.9381552    0.6617804    0.2400876
H    -4.8252424    1.2338890   -0.0111295
C    -2.6768410    1.2433246    0.0057578
C    -1.4974121    0.5051527    0.2848253
C    -1.6508332   -0.7338728    0.9404026
H    -0.7713646   -1.2730967    1.2633753
C    -2.8898548   -1.2624035    1.1994307
H    -2.9683706   -2.2124563    1.7152676
C    -2.5773185    2.5963696   -0.4192930
H    -3.4870728    3.1412239   -0.6474055
C    -1.3741895    3.2147896   -0.4364030
H    -1.2997315    4.2742019   -0.6578144
C    -0.1719488    2.4994090   -0.1734588
C    -0.2043917    1.1018437    0.0192689
C     1.0513491    3.2042560   -0.0676222
H     1.0427344    4.2819499   -0.1896997
C     2.1942091    2.5487446    0.2579577
H     3.1168527    3.0912848    0.4334727
C     2.2216473    1.1336562    0.2934990
C     1.0486931    0.3945528    0.0302412
C     3.4483363    0.4614633    0.5573939
H     4.3095794    1.0606054    0.8334846
C     3.5427346   -0.8855926    0.4749463
H     4.4731467   -1.3939704    0.7038822
C     2.4490052   -1.6474447   -0.0196319
C     1.2150704   -1.0057258   -0.3013573
C     0.2531113   -1.7434440   -1.0216591
H    -0.6541356   -1.2535051   -1.3462847
C     0.4494193   -3.0628597   -1.3413779
H    -0.3083162   -3.5944309   -1.9054060
C     1.6251726   -3.7207967   -0.9552541
H     1.7670048   -4.7687404   -1.1927019
C     2.6109872   -3.0144177   -0.3183050
H     3.5525612   -3.4902813   -0.0646367
Bq        -1.1844687598     1.2677435384     0.7390342166
Bq        -1.1830527775     1.0938126704     0.3788314290
Bq        -1.1848227554     1.3112262554     0.8290849134
Bq        -1.1826987820     1.0503299534     0.2887807322
Bq        -1.1851767510     1.3547089724     0.9191356103
Bq        -1.1823447864     1.0068472364     0.1987300353
Bq        -1.1855307466     1.3981916894     1.0091863072
Bq        -1.1819907908     0.9633645194     0.1086793384
Bq        -1.1837607687     1.1807781044     0.5589328228
Bq        -1.1839438320     1.3143122141     0.6055011386
Bq        -1.1832358408     1.2273467801     0.4253997449
Bq        -1.1842978276     1.3577949311     0.6955518355
Bq        -1.1828818453     1.1838640631     0.3353490480
Bq        -1.1846518231     1.4012776481     0.7856025324
Bq        -1.1825278497     1.1403813461     0.2452983511
Bq        -1.1850058187     1.4447603651     0.8756532293
Bq        -1.1821738541     1.0968986291     0.1552476542
Bq        -1.1853598143     1.4882430821     0.9657039262
Bq        -1.1818198585     1.0534159120     0.0651969574
Bq        -1.1835898364     1.2708294971     0.5154504418
Bq        -1.1837728997     1.4043636067     0.5620187576
Bq        -1.1830649086     1.3173981727     0.3819173639
Bq        -1.1841268953     1.4478463237     0.6520694545
Bq        -1.1827109130     1.2739154557     0.2918666670
Bq        -1.1844808909     1.4913290408     0.7421201514
Bq        -1.1823569174     1.2304327387     0.2018159701
Bq        -1.1848348864     1.5348117578     0.8321708483
Bq        -1.1820029218     1.1869500217     0.1117652732
Bq        -1.1851888820     1.5782944748     0.9222215451
Bq        -1.1816489263     1.1434673047     0.0217145763
Bq        -1.1834189041     1.3608808897     0.4719680607
Bq        -1.1836019674     1.4944149994     0.5185363766
Bq        -1.1828939763     1.4074495654     0.3384349828
Bq        -1.1839559630     1.5378977164     0.6085870735
Bq        -1.1825399807     1.3639668484     0.2483842859
Bq        -1.1843099586     1.5813804334     0.6986377703
Bq        -1.1821859851     1.3204841314     0.1583335891
Bq        -1.1846639542     1.6248631504     0.7886884672
Bq        -1.1818319896     1.2770014144     0.0682828922
Bq        -1.1850179497     1.6683458674     0.8787391641
Bq        -1.1814779940     1.2335186974    -0.0217678047
Bq        -1.1832479719     1.4509322824     0.4284856797
Bq        -1.1834310352     1.5844663921     0.4750539956
Bq        -1.1827230440     1.4975009581     0.2949526018
Bq        -1.1837850307     1.6279491091     0.5651046924
Bq        -1.1823690484     1.4540182411     0.2049019049
Bq        -1.1841390263     1.6714318261     0.6551553893
Bq        -1.1820150529     1.4105355241     0.1148512080
Bq        -1.1844930219     1.7149145431     0.7452060862
Bq        -1.1816610573     1.3670528071     0.0248005111
Bq        -1.1848470175     1.7583972601     0.8352567831
Bq        -1.1813070617     1.3235700901    -0.0652501857
Bq        -1.1830770396     1.5409836751     0.3850032987
Bq        -1.1832601029     1.6745177848     0.4315716145
Bq        -1.1825521117     1.5875523507     0.2514702208
Bq        -1.1836140985     1.7180005018     0.5216223114
Bq        -1.1821981162     1.5440696337     0.1614195239
Bq        -1.1839680940     1.7614832188     0.6116730083
Bq        -1.1818441206     1.5005869167     0.0713688270
Bq        -1.1843220896     1.8049659358     0.7017237052
Bq        -1.1814901250     1.4571041997    -0.0186818699
Bq        -1.1846760852     1.8484486528     0.7917744020
Bq        -1.1811361294     1.4136214827    -0.1087325668
Bq        -1.1829061073     1.6310350678     0.3415209176
Bq        -1.1830891706     1.7645691774     0.3880892335
Bq        -1.1823811795     1.6776037434     0.2079878397
Bq        -1.1834431662     1.8080518944     0.4781399304
Bq        -1.1820271839     1.6341210264     0.1179371428
Bq        -1.1837971618     1.8515346114     0.5681906273
Bq        -1.1816731883     1.5906383094     0.0278864460
Bq        -1.1841511573     1.8950173284     0.6582413241
Bq        -1.1813191927     1.5471555924    -0.0621642509
Bq        -1.1845051529     1.9385000454     0.7482920210
Bq        -1.1809651972     1.5036728754    -0.1522149478
Bq        -1.1827351750     1.7210864604     0.2980385366
Bq        -1.1829182383     1.8546205701     0.3446068525
Bq        -1.1822102472     1.7676551361     0.1645054587
Bq        -1.1832722339     1.8981032871     0.4346575493
Bq        -1.1818562516     1.7241724191     0.0744547618
Bq        -1.1836262295     1.9415860041     0.5247082462
Bq        -1.1815022560     1.6806897021    -0.0155959351
Bq        -1.1839802251     1.9850687211     0.6147589431
Bq        -1.1811482605     1.6372069851    -0.1056466320
Bq        -1.1843342206     2.0285514381     0.7048096400
Bq        -1.1807942649     1.5937242681    -0.1956973288
Bq        -1.1825642428     1.8111378531     0.2545561556
Bq        -1.1827473061     1.9446719628     0.3011244714
Bq        -1.1820393149     1.8577065288     0.1210230777
Bq        -1.1831013016     1.9881546798     0.3911751683
Bq        -1.1816853193     1.8142238118     0.0309723808
Bq        -1.1834552972     2.0316373968     0.4812258652
Bq        -1.1813313238     1.7707410947    -0.0590783161
Bq        -1.1838092928     2.0751201138     0.5712765621
Bq        -1.1809773282     1.7272583777    -0.1491290130
Bq        -1.1841632884     2.1186028308     0.6613272590
Bq        -1.1806233326     1.6837756607    -0.2391797099
Bq        -1.1823933105     1.9011892458     0.2110737745
Bq        -1.1825763738     2.0347233554     0.2576420904
Bq        -1.1818683826     1.9477579214     0.0775406966
Bq        -1.1829303694     2.0782060724     0.3476927873
Bq        -1.1815143871     1.9042752044    -0.0125100003
Bq        -1.1832843649     2.1216887894     0.4377434842
Bq        -1.1811603915     1.8607924874    -0.1025606971
Bq        -1.1836383605     2.1651715065     0.5277941810
Bq        -1.1808063959     1.8173097704    -0.1926113940
Bq        -1.1839923561     2.2086542235     0.6178448779
Bq        -1.1804524003     1.7738270534    -0.2826620909
Bq        -1.1822223782     1.9912406384     0.1675913935
Bq        -1.1824054415     2.1247747481     0.2141597094
Bq        -1.1816974504     2.0378093141     0.0340583156
Bq        -1.1827594371     2.1682574651     0.3042104062
Bq        -1.1813434548     1.9943265971    -0.0559923813
Bq        -1.1831134327     2.2117401821     0.3942611031
Bq        -1.1809894592     1.9508438801    -0.1460430782
Bq        -1.1834674282     2.2552228991     0.4843118000
Bq        -1.1806354636     1.9073611631    -0.2360937751
Bq        -1.1838214238     2.2987056161     0.5743624969
Bq        -1.1802814681     1.8638784461    -0.3261444719
Bq        -1.1820514459     2.0812920311     0.1241090125
Bq        -1.1822345092     2.2148261408     0.1706773283
Bq        -1.1815265181     2.1278607068    -0.0094240654
Bq        -1.1825885048     2.2583088578     0.2607280252
Bq        -1.1811725225     2.0843779898    -0.0994747623
Bq        -1.1829425004     2.3017915748     0.3507787221
Bq        -1.1808185269     2.0408952728    -0.1895254592
Bq        -1.1832964960     2.3452742918     0.4408294190
Bq        -1.1804645314     1.9974125558    -0.2795761561
Bq        -1.1836504915     2.3887570088     0.5308801159
Bq        -1.1801105358     1.9539298388    -0.3696268530
Bq        -1.1818805137     2.1713434238     0.0806266314
Bq        -1.1820635770     2.3048775334     0.1271949473
Bq        -1.1813555858     2.2179120994    -0.0529064465
Bq        -1.1824175725     2.3483602505     0.2172456442
Bq        -1.1810015902     2.1744293824    -0.1429571434
Bq        -1.1827715681     2.3918429675     0.3072963411
Bq        -1.1806475947     2.1309466654    -0.2330078402
Bq        -1.1831255637     2.4353256845     0.3973470379
Bq        -1.1802935991     2.0874639484    -0.3230585371
Bq        -1.1834795593     2.4788084015     0.4873977348
Bq        -1.1799396035     2.0439812314    -0.4131092340
Bq        -1.1817095814     2.2613948164     0.0371442504
Bq        -1.1818926447     2.3949289261     0.0837125663
Bq        -1.1811846535     2.3079634921    -0.0963888275
Bq        -1.1822466403     2.4384116431     0.1737632631
Bq        -1.1808306580     2.2644807751    -0.1864395244
Bq        -1.1826006358     2.4818943601     0.2638139600
Bq        -1.1804766624     2.2209980581    -0.2764902213
Bq        -1.1829546314     2.5253770771     0.3538646569
Bq        -1.1801226668     2.1775153411    -0.3665409182
Bq        -1.1833086270     2.5688597941     0.4439153538
Bq        -1.1797686712     2.1340326241    -0.4565916150
Bq        -1.1815386491     2.3514462091    -0.0063381306
Bq        -1.1817217124     2.4849803188     0.0402301852
Bq        -1.1810137213     2.3980148848    -0.1398712085
Bq        -1.1820757080     2.5284630358     0.1302808821
Bq        -1.1806597257     2.3545321678    -0.2299219054
Bq        -1.1824297036     2.5719457528     0.2203315790
Bq        -1.1803057301     2.3110494508    -0.3199726023
Bq        -1.1827836991     2.6154284698     0.3103822759
Bq        -1.1799517345     2.2675667338    -0.4100232992
Bq        -1.1831376947     2.6589111868     0.4004329728
Bq        -1.1795977390     2.2240840168    -0.5000739961
Bq        -1.1813677168     2.4414976018    -0.0498205117
Bq        -1.0902690988    -2.0175893147     2.2147423408
Bq        -1.0895611077    -2.1045547487     2.0346409470
Bq        -1.0906230944    -1.9741065977     2.3047930377
Bq        -1.0892071121    -2.1480374658     1.9445902501
Bq        -1.0909770900    -1.9306238807     2.3948437346
Bq        -1.0888531165    -2.1915201828     1.8545395533
Bq        -1.0913310855    -1.8871411637     2.4848944314
Bq        -1.0884991209    -2.2350028998     1.7644888564
Bq        -1.0916850811    -1.8436584467     2.5749451283
Bq        -1.0881451254    -2.2784856168     1.6744381595
Bq        -1.0899151032    -2.0610720317     2.1246916439
Bq        -1.0900981665    -1.9275379221     2.1712599598
Bq        -1.0893901754    -2.0145033561     1.9911585660
Bq        -1.0904521621    -1.8840552051     2.2613106566
Bq        -1.0890361798    -2.0579860731     1.9011078691
Bq        -1.0908061577    -1.8405724881     2.3513613535
Bq        -1.0886821842    -2.1014687901     1.8110571722
Bq        -1.0911601533    -1.7970897711     2.4414120504
Bq        -1.0883281887    -2.1449515071     1.7210064753
Bq        -1.0915141488    -1.7536070540     2.5314627473
Bq        -1.0879741931    -2.1884342241     1.6309557785
Bq        -1.0897441710    -1.9710206391     2.0812092629
Bq        -1.0899272343    -1.8374865294     2.1277775787
Bq        -1.0892192431    -1.9244519634     1.9476761850
Bq        -1.0902812298    -1.7940038124     2.2178282756
Bq        -1.0888652475    -1.9679346804     1.8576254881
Bq        -1.0906352254    -1.7505210954     2.3078789725
Bq        -1.0885112520    -2.0114173974     1.7675747912
Bq        -1.0909892210    -1.7070383784     2.3979296694
Bq        -1.0881572564    -2.0549001144     1.6775240943
Bq        -1.0913432166    -1.6635556614     2.4879803663
Bq        -1.0878032608    -2.0983828314     1.5874733974
Bq        -1.0895732387    -1.8809692464     2.0377268818
Bq        -1.0897563020    -1.7474351367     2.0842951977
Bq        -1.0890483108    -1.8344005707     1.9041938039
Bq        -1.0901102976    -1.7039524197     2.1743458946
Bq        -1.0886943153    -1.8778832877     1.8141431070

1
2
3
4
5
6
7
8
9
10
11
12
13
14
15
16
17
18
19
20
21
22
23
24
25
26
27
28
29
30
31
32
33
34
35
36
37
38
39
40
41
42
43
44
45
46
47
48
49
50
51
52
53
54
55
56
57
58
59
60
61
62
63
64
65
66
67
68
69
70
71
72
73
74
75
76
77
78
79
80
81
82
83
84
85
86
87
88
89
90
91
92
93
94
95
96
97
98
99
100
101
102
103
104
105
106
107
108
109
110
111
112
113
114
115
116
117
118
119
120
121
122
123
124
125
126
127
128
129
130
131
132
133
134
135
136
137
138
139
140
141
142
143
144
145
146
147
148
149
150
151
152
153
154
155
156
157
158
159
160
161
162
163
164
165
166
167
168
169
170
171
172
173
174
175
176
177
178
179
180
181
182
183
184
185
186
187
188
189
190
191
192
193
194
195
196
197
198
199
200
201
202
203
204
205
206
207
208
209
210
211
212
213
214
215
216
217
218
219
220
221
222
223
224
225
226
227
228
229
230
231
232
233
234
235
236

