%nproc=8
%mem=1000MB
# rb3lyp/6-311+g** NMR geom=connectivity

Title

0 1
C    -4.0500558   -0.5771862    0.8136712
H    -5.0263804   -1.0082727    1.0024760
C    -3.9381552    0.6617804    0.2400876
H    -4.8252424    1.2338890   -0.0111295
C    -2.6768410    1.2433246    0.0057578
C    -1.4974121    0.5051527    0.2848253
C    -1.6508332   -0.7338728    0.9404026
H    -0.7713646   -1.2730967    1.2633753
C    -2.8898548   -1.2624035    1.1994307
H    -2.9683706   -2.2124563    1.7152676
C    -2.5773185    2.5963696   -0.4192930
H    -3.4870728    3.1412239   -0.6474055
C    -1.3741895    3.2147896   -0.4364030
H    -1.2997315    4.2742019   -0.6578144
C    -0.1719488    2.4994090   -0.1734588
C    -0.2043917    1.1018437    0.0192689
C     1.0513491    3.2042560   -0.0676222
H     1.0427344    4.2819499   -0.1896997
C     2.1942091    2.5487446    0.2579577
H     3.1168527    3.0912848    0.4334727
C     2.2216473    1.1336562    0.2934990
C     1.0486931    0.3945528    0.0302412
C     3.4483363    0.4614633    0.5573939
H     4.3095794    1.0606054    0.8334846
C     3.5427346   -0.8855926    0.4749463
H     4.4731467   -1.3939704    0.7038822
C     2.4490052   -1.6474447   -0.0196319
C     1.2150704   -1.0057258   -0.3013573
C     0.2531113   -1.7434440   -1.0216591
H    -0.6541356   -1.2535051   -1.3462847
C     0.4494193   -3.0628597   -1.3413779
H    -0.3083162   -3.5944309   -1.9054060
C     1.6251726   -3.7207967   -0.9552541
H     1.7670048   -4.7687404   -1.1927019
C     2.6109872   -3.0144177   -0.3183050
H     3.5525612   -3.4902813   -0.0646367
Bq        -1.3846017537     0.5069356387     0.7724725853
Bq        -1.3856637404     0.6373837897     1.0426246759
Bq        -1.3842477581     0.4634529217     0.6824218884
Bq        -1.3860177360     0.6808665067     1.1326753728
Bq        -1.3838937626     0.4199702047     0.5923711915
Bq        -1.3863717316     0.7243492237     1.2227260697
Bq        -1.3835397670     0.3764874877     0.5023204946
Bq        -1.3867257272     0.7678319407     1.3127767666
Bq        -1.3831857714     0.3330047707     0.4122697977
Bq        -1.3849557493     0.5504183557     0.8625232821
Bq        -1.3851388126     0.6839524654     0.9090915980
Bq        -1.3844308214     0.5969870314     0.7289902042
Bq        -1.3854928082     0.7274351824     0.9991422949
Bq        -1.3840768259     0.5535043144     0.6389395073
Bq        -1.3858468037     0.7709178994     1.0891929918
Bq        -1.3837228303     0.5100215974     0.5488888105
Bq        -1.3862007993     0.8144006164     1.1792436886
Bq        -1.3833688347     0.4665388804     0.4588381136
Bq        -1.3865547949     0.8578833334     1.2692943855
Bq        -1.3830148392     0.4230561634     0.3687874167
Bq        -1.3847848170     0.6404697484     0.8190409011
Bq        -1.3849678803     0.7740038581     0.8656092170
Bq        -1.3842598892     0.6870384240     0.6855078232
Bq        -1.3853218759     0.8174865751     0.9556599138
Bq        -1.3839058936     0.6435557070     0.5954571263
Bq        -1.3856758715     0.8609692921     1.0457106107
Bq        -1.3835518980     0.6000729900     0.5054064294
Bq        -1.3860298670     0.9044520091     1.1357613076
Bq        -1.3831979025     0.5565902730     0.4153557325
Bq        -1.3863838626     0.9479347261     1.2258120045
Bq        -1.3828439069     0.5131075560     0.3253050357
Bq        -1.3846138847     0.7305211410     0.7755585201
Bq        -1.3847969480     0.8640552507     0.8221268359
Bq        -1.3840889569     0.7770898167     0.6420254422
Bq        -1.3851509436     0.9075379677     0.9121775328
Bq        -1.3837349613     0.7336070997     0.5519747453
Bq        -1.3855049392     0.9510206847     1.0022282297
Bq        -1.3833809658     0.6901243827     0.4619240484
Bq        -1.3858589348     0.9945034017     1.0922789266
Bq        -1.3830269702     0.6466416657     0.3718733515
Bq        -1.3862129303     1.0379861187     1.1823296235
Bq        -1.3826729746     0.6031589487     0.2818226546
Bq        -1.3844429525     0.8205725337     0.7320761390
Bq        -1.3846260158     0.9541066434     0.7786444549
Bq        -1.3839180246     0.8671412094     0.5985430611
Bq        -1.3849800113     0.9975893604     0.8686951518
Bq        -1.3835640291     0.8236584924     0.5084923642
Bq        -1.3853340069     1.0410720774     0.9587458487
Bq        -1.3832100335     0.7801757754     0.4184416674
Bq        -1.3856880025     1.0845547944     1.0487965455
Bq        -1.3828560379     0.7366930584     0.3283909705
Bq        -1.3860419981     1.1280375114     1.1388472424
Bq        -1.3825020423     0.6932103414     0.2383402736
Bq        -1.3842720202     0.9106239264     0.6885937580
Bq        -1.3844550835     1.0441580361     0.7351620739
Bq        -1.3837470924     0.9571926021     0.5550606801
Bq        -1.3848090791     1.0876407531     0.8252127707
Bq        -1.3833930968     0.9137098850     0.4650099832
Bq        -1.3851630746     1.1311234701     0.9152634676
Bq        -1.3830391012     0.8702271680     0.3749592863
Bq        -1.3855170702     1.1746061871     1.0053141645
Bq        -1.3826851056     0.8267444510     0.2849085894
Bq        -1.3858710658     1.2180889041     1.0953648614
Bq        -1.3823311101     0.7832617340     0.1948578926
Bq        -1.3841010879     1.0006753191     0.6451113770
Bq        -1.3842841512     1.1342094287     0.6916796928
Bq        -1.3835761601     1.0472439947     0.5115782991
Bq        -1.3846381468     1.1776921457     0.7817303897
Bq        -1.3832221645     1.0037612777     0.4215276022
Bq        -1.3849921424     1.2211748627     0.8717810866
Bq        -1.3828681689     0.9602785607     0.3314769053
Bq        -1.3853461379     1.2646575797     0.9618317835
Bq        -1.3825141734     0.9167958437     0.2414262084
Bq        -1.3857001335     1.3081402968     1.0518824804
Bq        -1.3821601778     0.8733131267     0.1513755115
Bq        -1.3839301557     1.0907267117     0.6016289959
Bq        -1.3841132190     1.2242608214     0.6481973118
Bq        -1.3834052278     1.1372953874     0.4680959180
Bq        -1.3844672145     1.2677435384     0.7382480087
Bq        -1.3830512322     1.0938126704     0.3780452211
Bq        -1.3848212101     1.3112262554     0.8282987056
Bq        -1.3826972367     1.0503299534     0.2879945243
Bq        -1.3851752057     1.3547089724     0.9183494024
Bq        -1.3823432411     1.0068472364     0.1979438274
Bq        -1.3855292012     1.3981916894     1.0084000993
Bq        -1.3819892455     0.9633645194     0.1078931305
Bq        -1.3837592234     1.1807781044     0.5581466149
Bq        -1.3839422867     1.3143122141     0.6047149308
Bq        -1.3832342955     1.2273467801     0.4246135370
Bq        -1.3842962823     1.3577949311     0.6947656276
Bq        -1.3828803000     1.1838640631     0.3345628401
Bq        -1.3846502778     1.4012776481     0.7848163245
Bq        -1.3825263044     1.1403813461     0.2445121432
Bq        -1.3850042734     1.4447603651     0.8748670214
Bq        -1.3821723088     1.0968986291     0.1544614464
Bq        -1.3853582690     1.4882430821     0.9649177183
Bq        -1.3818183132     1.0534159120     0.0644107495
Bq        -1.3835882911     1.2708294971     0.5146642339
Bq        -1.3837713544     1.4043636067     0.5612325497
Bq        -1.3830633633     1.3173981727     0.3811311560
Bq        -1.3841253500     1.4478463237     0.6512832466
Bq        -1.3827093677     1.2739154557     0.2910804591
Bq        -1.3844793456     1.4913290408     0.7413339435
Bq        -1.3823553721     1.2304327387     0.2010297622
Bq        -1.3848333411     1.5348117578     0.8313846404
Bq        -1.3820013765     1.1869500217     0.1109790653
Bq        -1.3851873367     1.5782944748     0.9214353373
Bq        -1.3816473810     1.1434673047     0.0209283684
Bq        -1.3834173588     1.3608808897     0.4711818528
Bq        -1.3836004221     1.4944149994     0.5177501687
Bq        -1.3828924310     1.4074495654     0.3376487749
Bq        -1.3839544177     1.5378977164     0.6078008656
Bq        -1.3825384354     1.3639668484     0.2475980781
Bq        -1.3843084133     1.5813804334     0.6978515625
Bq        -1.3821844398     1.3204841314     0.1575473812
Bq        -1.3846624089     1.6248631504     0.7879022593
Bq        -1.3818304443     1.2770014144     0.0674966843
Bq        -1.3850164044     1.6683458674     0.8779529562
Bq        -1.3814764487     1.2335186974    -0.0225540126
Bq        -1.3832464266     1.4509322824     0.4276994718
Bq        -1.3834294899     1.5844663921     0.4742677877
Bq        -1.3827214987     1.4975009581     0.2941663939
Bq        -1.3837834854     1.6279491091     0.5643184845
Bq        -1.3823675031     1.4540182411     0.2041156970
Bq        -1.3841374810     1.6714318261     0.6543691814
Bq        -1.3820135076     1.4105355241     0.1140650001
Bq        -1.3844914766     1.7149145431     0.7444198783
Bq        -1.3816595120     1.3670528071     0.0240143033
Bq        -1.3848454721     1.7583972601     0.8344705752
Bq        -1.3813055164     1.3235700901    -0.0660363936
Bq        -1.3830754943     1.5409836751     0.3842170908
Bq        -1.3832585576     1.6745177848     0.4307854066
Bq        -1.3825505664     1.5875523507     0.2506840129
Bq        -1.3836125532     1.7180005018     0.5208361035
Bq        -1.3821965709     1.5440696337     0.1606333160
Bq        -1.3839665487     1.7614832188     0.6108868004
Bq        -1.3818425753     1.5005869167     0.0705826191
Bq        -1.3843205443     1.8049659358     0.7009374973
Bq        -1.3814885797     1.4571041997    -0.0194680778
Bq        -1.3846745399     1.8484486528     0.7909881942
Bq        -1.3811345841     1.4136214827    -0.1095187747
Bq        -1.3829045620     1.6310350678     0.3407347098
Bq        -1.3830876253     1.7645691774     0.3873030256
Bq        -1.3823796342     1.6776037434     0.2072016318
Bq        -1.3834416209     1.8080518944     0.4773537225
Bq        -1.3820256386     1.6341210264     0.1171509350
Bq        -1.3837956165     1.8515346114     0.5674044194
Bq        -1.3816716430     1.5906383094     0.0271002381
Bq        -1.3841496120     1.8950173284     0.6574551162
Bq        -1.3813176474     1.5471555924    -0.0629504588
Bq        -1.3845036076     1.9385000454     0.7475058131
Bq        -1.3809636519     1.5036728754    -0.1530011557
Bq        -1.3827336297     1.7210864604     0.2972523287
Bq        -1.3829166930     1.8546205701     0.3438206446
Bq        -1.3822087019     1.7676551361     0.1637192508
Bq        -1.3832706886     1.8981032871     0.4338713415
Bq        -1.3818547063     1.7241724191     0.0736685539
Bq        -1.3836246842     1.9415860041     0.5239220383
Bq        -1.3815007107     1.6806897021    -0.0163821430
Bq        -1.3839786798     1.9850687211     0.6139727352
Bq        -1.3811467152     1.6372069851    -0.1064328398
Bq        -1.3843326753     2.0285514381     0.7040234321
Bq        -1.3807927196     1.5937242681    -0.1964835367
Bq        -1.3825626975     1.8111378531     0.2537699477
Bq        -1.3827457608     1.9446719628     0.3003382635
Bq        -1.3820377696     1.8577065288     0.1202368698
Bq        -1.3830997563     1.9881546798     0.3903889604
Bq        -1.3816837740     1.8142238118     0.0301861729
Bq        -1.3834537519     2.0316373968     0.4804396573
Bq        -1.3813297785     1.7707410947    -0.0598645240
Bq        -1.3838077475     2.0751201138     0.5704903542
Bq        -1.3809757829     1.7272583777    -0.1499152209
Bq        -1.3841617431     2.1186028308     0.6605410511
Bq        -1.3806217873     1.6837756607    -0.2399659178
Bq        -1.3823917652     1.9011892458     0.2102875667
Bq        -1.3825748285     2.0347233554     0.2568558825
Bq        -1.3818668373     1.9477579214     0.0767544887
Bq        -1.3829288241     2.0782060724     0.3469065794
Bq        -1.3815128418     1.9042752044    -0.0132962081
Bq        -1.3832828196     2.1216887894     0.4369572763
Bq        -1.3811588462     1.8607924874    -0.1033469050
Bq        -1.3836368152     2.1651715065     0.5270079732
Bq        -1.3808048506     1.8173097704    -0.1933976019
Bq        -1.3839908108     2.2086542235     0.6170586700
Bq        -1.3804508550     1.7738270534    -0.2834482988
Bq        -1.3822208329     1.9912406384     0.1668051856
Bq        -1.3824038962     2.1247747481     0.2133735015
Bq        -1.3816959051     2.0378093141     0.0332721077
Bq        -1.3827578918     2.1682574651     0.3034241984
Bq        -1.3813419095     1.9943265971    -0.0567785892
Bq        -1.3831118874     2.2117401821     0.3934748952
Bq        -1.3809879139     1.9508438801    -0.1468292861
Bq        -1.3834658829     2.2552228991     0.4835255921
Bq        -1.3806339183     1.9073611631    -0.2368799829
Bq        -1.3838198785     2.2987056161     0.5735762890
Bq        -1.3802799228     1.8638784461    -0.3269306798
Bq        -1.3820499006     2.0812920311     0.1233228046
Bq        -1.3822329639     2.2148261408     0.1698911204
Bq        -1.3815249728     2.1278607068    -0.0102102733
Bq        -1.3825869595     2.2583088578     0.2599418173

1
2
3
4
5
6
7
8
9
10
11
12
13
14
15
16
17
18
19
20
21
22
23
24
25
26
27
28
29
30
31
32
33
34
35
36
37
38
39
40
41
42
43
44
45
46
47
48
49
50
51
52
53
54
55
56
57
58
59
60
61
62
63
64
65
66
67
68
69
70
71
72
73
74
75
76
77
78
79
80
81
82
83
84
85
86
87
88
89
90
91
92
93
94
95
96
97
98
99
100
101
102
103
104
105
106
107
108
109
110
111
112
113
114
115
116
117
118
119
120
121
122
123
124
125
126
127
128
129
130
131
132
133
134
135
136
137
138
139
140
141
142
143
144
145
146
147
148
149
150
151
152
153
154
155
156
157
158
159
160
161
162
163
164
165
166
167
168
169
170
171
172
173
174
175
176
177
178
179
180
181
182
183
184
185
186
187
188
189
190
191
192
193
194
195
196
197
198
199
200
201
202
203
204
205
206
207
208
209
210
211
212
213
214
215
216
217
218
219
220
221
222
223
224
225
226
227
228
229
230
231
232
233
234
235
236

