%nproc=8
%mem=1000MB
# rb3lyp/6-311+g** NMR geom=connectivity

Title

0 1
C    -4.0500558   -0.5771862    0.8136712
H    -5.0263804   -1.0082727    1.0024760
C    -3.9381552    0.6617804    0.2400876
H    -4.8252424    1.2338890   -0.0111295
C    -2.6768410    1.2433246    0.0057578
C    -1.4974121    0.5051527    0.2848253
C    -1.6508332   -0.7338728    0.9404026
H    -0.7713646   -1.2730967    1.2633753
C    -2.8898548   -1.2624035    1.1994307
H    -2.9683706   -2.2124563    1.7152676
C    -2.5773185    2.5963696   -0.4192930
H    -3.4870728    3.1412239   -0.6474055
C    -1.3741895    3.2147896   -0.4364030
H    -1.2997315    4.2742019   -0.6578144
C    -0.1719488    2.4994090   -0.1734588
C    -0.2043917    1.1018437    0.0192689
C     1.0513491    3.2042560   -0.0676222
H     1.0427344    4.2819499   -0.1896997
C     2.1942091    2.5487446    0.2579577
H     3.1168527    3.0912848    0.4334727
C     2.2216473    1.1336562    0.2934990
C     1.0486931    0.3945528    0.0302412
C     3.4483363    0.4614633    0.5573939
H     4.3095794    1.0606054    0.8334846
C     3.5427346   -0.8855926    0.4749463
H     4.4731467   -1.3939704    0.7038822
C     2.4490052   -1.6474447   -0.0196319
C     1.2150704   -1.0057258   -0.3013573
C     0.2531113   -1.7434440   -1.0216591
H    -0.6541356   -1.2535051   -1.3462847
C     0.4494193   -3.0628597   -1.3413779
H    -0.3083162   -3.5944309   -1.9054060
C     1.6251726   -3.7207967   -0.9552541
H     1.7670048   -4.7687404   -1.1927019
C     2.6109872   -3.0144177   -0.3183050
H     3.5525612   -3.4902813   -0.0646367
Bq         1.0309985150     0.2218930920     0.7343380304
Bq         1.1850717010     0.3072590462     0.1607753859
Bq         1.0053196507     0.2076654330     0.8299318045
Bq         1.2107505653     0.3214867052     0.0651816118
Bq         0.9796407864     0.1934377739     0.9255255786
Bq         1.2364294296     0.3357143642    -0.0304121623
Bq         1.1080351080     0.2645760691     0.4475567081
Bq         1.0786651931     0.3493311041     0.5568910218
Bq         1.1300229218     0.3777864221     0.3657034736
Bq         1.0529863288     0.3351034451     0.6524847959
Bq         1.1557017861     0.3920140812     0.2701096995
Bq         1.0273074645     0.3208757860     0.7480785700
Bq         1.1813806504     0.4062417402     0.1745159254
Bq         1.0016286002     0.3066481270     0.8436723441
Bq         1.2070595148     0.4204693992     0.0789221513
Bq         0.9759497358     0.2924204680     0.9392661182
Bq         1.2327383791     0.4346970583    -0.0166716228
Bq         1.1043440575     0.3635587631     0.4612972477
Bq         1.0749741426     0.4483137981     0.5706315614
Bq         1.1263318712     0.4767691162     0.3794440132
Bq         1.0492952783     0.4340861391     0.6662253355
Bq         1.1520107356     0.4909967752     0.2838502391
Bq         1.0236164140     0.4198584801     0.7618191096
Bq         1.1776895999     0.5052244342     0.1882564650
Bq         0.9979375496     0.4056308210     0.8574128836
Bq         1.2033684642     0.5194520933     0.0926626909
Bq         0.9722586853     0.3914031620     0.9530066577
Bq         1.2290473285     0.5336797523    -0.0029310832
Bq         1.1006530069     0.4625414571     0.4750377873
Bq         1.0712830921     0.5472964922     0.5843721009
Bq         1.1226408207     0.5757518102     0.3931845527
Bq         1.0456042277     0.5330688331     0.6799658750
Bq         1.1483196850     0.5899794692     0.2975907786
Bq         1.0199253634     0.5188411741     0.7755596491
Bq         1.1739985494     0.6042071283     0.2019970045
Bq         0.9942464991     0.5046135151     0.8711534232
Bq         1.1996774137     0.6184347873     0.1064032304
Bq         0.9685676348     0.4903858560     0.9667471973
Bq         1.2253562780     0.6326624463     0.0108094564
Bq         1.0969619564     0.5615241512     0.4887783268
Bq         1.0675920415     0.6462791862     0.5981126405
Bq         1.1189497702     0.6747345042     0.4069250923
Bq         1.0419131772     0.6320515272     0.6937064146
Bq         1.1446286345     0.6889621633     0.3113313182
Bq         1.0162343129     0.6178238681     0.7893001887
Bq         1.1703074988     0.7031898223     0.2157375441
Bq         0.9905554486     0.6035962091     0.8848939628
Bq         1.1959863631     0.7174174813     0.1201437700
Bq         0.9648765842     0.5893685501     0.9804877369
Bq         1.2216652275     0.7316451404     0.0245499959
Bq         1.0932709059     0.6605068452     0.5025188664
Bq         1.0639009910     0.7452618802     0.6118531800
Bq         1.1152587196     0.7737171983     0.4206656318
Bq         1.0382221267     0.7310342212     0.7074469541
Bq         1.1409375840     0.7879448573     0.3250718578
Bq         1.0125432624     0.7168065622     0.8030407282
Bq         1.1666164483     0.8021725163     0.2294780837
Bq         0.9868643980     0.7025789031     0.8986345023
Bq         1.1922953126     0.8164001754     0.1338843096
Bq         0.9611855337     0.6883512441     0.9942282764
Bq         1.2179741769     0.8306278344     0.0382905355
Bq         1.0895798553     0.7594895393     0.5162594059
Bq         1.0602099405     0.8442445743     0.6255937196
Bq         1.1115676691     0.8726998923     0.4344061714
Bq         1.0345310761     0.8300169152     0.7211874937
Bq         1.1372465334     0.8869275513     0.3388123973
Bq         1.0088522118     0.8157892562     0.8167812678
Bq         1.1629253978     0.9011552104     0.2432186232
Bq         0.9831733475     0.8015615972     0.9123750419
Bq         1.1886042621     0.9153828694     0.1476248491
Bq         0.9574944832     0.7873339381     1.0079688160
Bq         1.2142831264     0.9296105284     0.0520310750
Bq         1.0858888048     0.8584722333     0.5299999455
Bq         1.0565188899     0.9432272683     0.6393342592
Bq         1.1078766186     0.9716825864     0.4481467110
Bq         1.0308400256     0.9289996093     0.7349280333
Bq         1.1335554829     0.9859102454     0.3525529369
Bq         1.0051611613     0.9147719502     0.8305218073
Bq         1.1592343472     1.0001379044     0.2569591628
Bq         0.9794822970     0.9005442912     0.9261155814
Bq         1.1849132115     1.0143655634     0.1613653887
Bq         0.9538034326     0.8863166322     1.0217093555
Bq         1.2105920759     1.0285932225     0.0657716146
Bq         1.0821977542     0.9574549273     0.5437404851
Bq         1.0528278394     1.0422099623     0.6530747987
Bq         1.1041855680     1.0706652804     0.4618872505
Bq         1.0271489751     1.0279823033     0.7486685728
Bq         1.1298644324     1.0848929394     0.3662934764
Bq         1.0014701107     1.0137546443     0.8442623469
Bq         1.1555432967     1.0991205984     0.2706997023
Bq         0.9757912464     0.9995269852     0.9398561210
Bq         1.1812221610     1.1133482575     0.1751059282
Bq         0.9501123821     0.9852993262     1.0354498951
Bq         1.2069010253     1.1275759165     0.0795121541
Bq         1.0785067037     1.0564376214     0.5574810246
Bq         1.0491367889     1.1411926564     0.6668153383
Bq         1.1004945175     1.1696479744     0.4756277901
Bq         1.0234579245     1.1269649973     0.7624091124
Bq         1.1261733818     1.1838756335     0.3800340160
Bq         0.9977790602     1.1127373383     0.8580028865
Bq         1.1518522461     1.1981032925     0.2844402419
Bq         0.9721001959     1.0985096793     0.9535966606
Bq         1.1775311105     1.2123309515     0.1888464678
Bq         0.9464213316     1.0842820203     1.0491904347
Bq         1.2032099748     1.2265586105     0.0932526937
Bq         1.0748156532     1.1554203154     0.5712215642
Bq         1.0454457383     1.2401753504     0.6805558778
Bq         1.0968034670     1.2686306685     0.4893683296
Bq         1.0197668740     1.2259476914     0.7761496519
Bq         1.1224823313     1.2828583275     0.3937745555
Bq         0.9940880097     1.2117200323     0.8717434260
Bq         1.1481611956     1.2970859865     0.2981807815
Bq         0.9684091454     1.1974923733     0.9673372001
Bq         1.1738400599     1.3113136455     0.2025870074
Bq         0.9427302810     1.1832647143     1.0629309742
Bq         1.1995189243     1.3255413046     0.1069932333
Bq         1.0711246026     1.2544030094     0.5849621037
Bq         1.0417546878     1.3391580444     0.6942964174
Bq         1.0931124164     1.3676133625     0.5031088692
Bq         1.0160758235     1.3249303854     0.7898901915
Bq         1.1187912808     1.3818410215     0.4075150951
Bq         0.9903969591     1.3107027264     0.8854839656
Bq         1.1444701451     1.3960686806     0.3119213210
Bq         0.9647180948     1.2964750674     0.9810777397
Bq         1.1701490094     1.4102963396     0.2163275469
Bq         0.9390392305     1.2822474083     1.0766715138
Bq         1.1958278737     1.4245239986     0.1207337728
Bq         1.0674335521     1.3533857035     0.5987026433
Bq         1.0380636372     1.4381407385     0.7080369569
Bq         1.0894213659     1.4665960565     0.5168494088
Bq         1.0123847729     1.4239130794     0.8036307310
Bq         1.1151002302     1.4808237156     0.4212556347
Bq         0.9867059086     1.4096854204     0.8992245051
Bq         1.1407790945     1.4950513746     0.3256618606
Bq         0.9610270443     1.3954577614     0.9948182792
Bq         1.1664579589     1.5092790336     0.2300680865
Bq         0.9353481800     1.3812301024     1.0904120533
Bq         1.1921368232     1.5235066926     0.1344743124
Bq         1.0637425016     1.4523683975     0.6124431829
Bq         1.0343725867     1.5371234325     0.7217774965
Bq         1.0857303154     1.5655787506     0.5305899483
Bq         1.0086937224     1.5228957735     0.8173712706
Bq         1.1114091797     1.5798064096     0.4349961742
Bq         0.9830148581     1.5086681145     0.9129650447
Bq         1.1370880440     1.5940340686     0.3394024001
Bq         0.9573359937     1.4944404554     1.0085588188
Bq         1.1627669083     1.6082617277     0.2438086260
Bq         0.9316571294     1.4802127964     1.1041525929
Bq         1.1884457726     1.6224893867     0.1482148519
Bq         1.0600514510     1.5513510915     0.6261837224
Bq         1.0306815362     1.6361061265     0.7355180361
Bq         1.0820392648     1.6645614446     0.5443304879
Bq         1.0050026719     1.6218784675     0.8311118102
Bq         1.1077181291     1.6787891036     0.4487367138
Bq         0.9793238075     1.6076508085     0.9267055843
Bq         1.1333969935     1.6930167627     0.3531429397
Bq         0.9536449432     1.5934231495     1.0222993584
Bq         1.1590758578     1.7072444217     0.2575491656
Bq         0.9279660789     1.5791954904     1.1178931324
Bq         1.1847547221     1.7214720807     0.1619553915
Bq         1.0563604005     1.6503337856     0.6399242620
Bq         1.0269904856     1.7350888206     0.7492585756
Bq         1.0783482143     1.7635441386     0.5580710274
Bq         1.0013116213     1.7208611616     0.8448523497
Bq         1.1040270786     1.7777717977     0.4624772533
Bq         0.9756327570     1.7066335025     0.9404461238
Bq         1.1297059429     1.7919994567     0.3668834792
Bq         0.9499538927     1.6924058435     1.0360398979
Bq         1.1553848073     1.8062271157     0.2712897052
Bq         0.9242750284     1.6781781845     1.1316336720
Bq         1.1810636716     1.8204547748     0.1756959311
Bq         1.0526693500     1.7493164796     0.6536648015
Bq         1.0232994351     1.8340715146     0.7629991152
Bq         1.0746571638     1.8625268327     0.5718115670
Bq         0.9976205708     1.8198438556     0.8585928893
Bq         1.1003360281     1.8767544917     0.4762177929
Bq         0.9719417065     1.8056161966     0.9541866634
Bq         1.1260148924     1.8909821507     0.3806240188
Bq         0.9462628421     1.7913885375     1.0497804375
Bq         1.1516937567     1.9052098098     0.2850302447
Bq         0.9205839778     1.7771608785     1.1453742116
Bq         1.1773726210     1.9194374688     0.1894364706
Bq         1.0489782994     1.8482991736     0.6674053411
Bq         1.0196083846     1.9330542087     0.7767396547
Bq         1.0709661132     1.9615095267     0.5855521066
Bq         0.9939295202     1.9188265496     0.8723334288
Bq         1.0966449775     1.9757371857     0.4899583325
Bq         0.9682506559     1.9045988906     0.9679272029
Bq         1.1223238419     1.9899648448     0.3943645584
Bq         0.9425717916     1.8903712316     1.0635209770
Bq         1.1480027062     2.0041925038     0.2987707843
Bq         0.9168929273     1.8761435725     1.1591147511
Bq         1.1736815705     2.0184201628     0.2031770102
Bq         1.0452872489     1.9472818677     0.6811458806
Bq         1.0159173340     2.0320369027     0.7904801943
Bq         1.0672750627     2.0604922207     0.5992926461
Bq         0.9902384697     2.0178092437     0.8860739684
Bq         1.0929539270     2.0747198798     0.5036988720
Bq         0.9645596054     2.0035815846     0.9816677425
Bq         1.1186327913     2.0889475388     0.4081050979

1
2
3
4
5
6
7
8
9
10
11
12
13
14
15
16
17
18
19
20
21
22
23
24
25
26
27
28
29
30
31
32
33
34
35
36
37
38
39
40
41
42
43
44
45
46
47
48
49
50
51
52
53
54
55
56
57
58
59
60
61
62
63
64
65
66
67
68
69
70
71
72
73
74
75
76
77
78
79
80
81
82
83
84
85
86
87
88
89
90
91
92
93
94
95
96
97
98
99
100
101
102
103
104
105
106
107
108
109
110
111
112
113
114
115
116
117
118
119
120
121
122
123
124
125
126
127
128
129
130
131
132
133
134
135
136
137
138
139
140
141
142
143
144
145
146
147
148
149
150
151
152
153
154
155
156
157
158
159
160
161
162
163
164
165
166
167
168
169
170
171
172
173
174
175
176
177
178
179
180
181
182
183
184
185
186
187
188
189
190
191
192
193
194
195
196
197
198
199
200
201
202
203
204
205
206
207
208
209
210
211
212
213
214
215
216
217
218
219
220
221
222
223
224
225
226
227
228
229
230
231
232
233
234
235
236

