%nproc=8
%mem=1000MB
# rb3lyp/6-311+g** NMR geom=connectivity

Title

0 1
C    -4.0500558   -0.5771862    0.8136712
H    -5.0263804   -1.0082727    1.0024760
C    -3.9381552    0.6617804    0.2400876
H    -4.8252424    1.2338890   -0.0111295
C    -2.6768410    1.2433246    0.0057578
C    -1.4974121    0.5051527    0.2848253
C    -1.6508332   -0.7338728    0.9404026
H    -0.7713646   -1.2730967    1.2633753
C    -2.8898548   -1.2624035    1.1994307
H    -2.9683706   -2.2124563    1.7152676
C    -2.5773185    2.5963696   -0.4192930
H    -3.4870728    3.1412239   -0.6474055
C    -1.3741895    3.2147896   -0.4364030
H    -1.2997315    4.2742019   -0.6578144
C    -0.1719488    2.4994090   -0.1734588
C    -0.2043917    1.1018437    0.0192689
C     1.0513491    3.2042560   -0.0676222
H     1.0427344    4.2819499   -0.1896997
C     2.1942091    2.5487446    0.2579577
H     3.1168527    3.0912848    0.4334727
C     2.2216473    1.1336562    0.2934990
C     1.0486931    0.3945528    0.0302412
C     3.4483363    0.4614633    0.5573939
H     4.3095794    1.0606054    0.8334846
C     3.5427346   -0.8855926    0.4749463
H     4.4731467   -1.3939704    0.7038822
C     2.4490052   -1.6474447   -0.0196319
C     1.2150704   -1.0057258   -0.3013573
C     0.2531113   -1.7434440   -1.0216591
H    -0.6541356   -1.2535051   -1.3462847
C     0.4494193   -3.0628597   -1.3413779
H    -0.3083162   -3.5944309   -1.9054060
C     1.6251726   -3.7207967   -0.9552541
H     1.7670048   -4.7687404   -1.1927019
C     2.6109872   -3.0144177   -0.3183050
H     3.5525612   -3.4902813   -0.0646367
Bq        -2.7838586833    -0.0272008000     0.5806958667
Bq        -5.2902366472    -2.0175893147     2.1982319752
Bq        -5.2895286561    -2.1045547487     2.0181305815
Bq        -5.2905906428    -1.9741065977     2.2882826721
Bq        -5.2891746605    -2.1480374658     1.9280798846
Bq        -5.2909446384    -1.9306238807     2.3783333690
Bq        -5.2888206649    -2.1915201828     1.8380291877
Bq        -5.2912986340    -1.8871411637     2.4683840659
Bq        -5.2884666694    -2.2350028998     1.7479784908
Bq        -5.2916526295    -1.8436584467     2.5584347627
Bq        -5.2881126738    -2.2784856168     1.6579277939
Bq        -5.2898826517    -2.0610720317     2.1081812783
Bq        -5.2900657150    -1.9275379221     2.1547495942
Bq        -5.2893577238    -2.0145033561     1.9746482004
Bq        -5.2904197105    -1.8840552051     2.2448002911
Bq        -5.2890037282    -2.0579860731     1.8845975035
Bq        -5.2907737061    -1.8405724881     2.3348509880
Bq        -5.2886497327    -2.1014687901     1.7945468067
Bq        -5.2911277017    -1.7970897711     2.4249016848
Bq        -5.2882957371    -2.1449515071     1.7044961098
Bq        -5.2914816973    -1.7536070540     2.5149523817
Bq        -5.2879417415    -2.1884342241     1.6144454129
Bq        -5.2897117194    -1.9710206391     2.0646988973
Bq        -5.2898947827    -1.8374865294     2.1112672132
Bq        -5.2891867915    -1.9244519634     1.9311658194
Bq        -5.2902487783    -1.7940038124     2.2013179100
Bq        -5.2888327960    -1.9679346804     1.8411151225
Bq        -5.2906027738    -1.7505210954     2.2913686069
Bq        -5.2884788004    -2.0114173974     1.7510644256
Bq        -5.2909567694    -1.7070383784     2.3814193038
Bq        -5.2881248048    -2.0549001144     1.6610137287
Bq        -5.2913107650    -1.6635556614     2.4714700007
Bq        -5.2877708092    -2.0983828314     1.5709630319
Bq        -5.2895407871    -1.8809692464     2.0212165163
Bq        -5.2897238504    -1.7474351367     2.0677848321
Bq        -5.2890158593    -1.8344005707     1.8876834384
Bq        -5.2900778460    -1.7039524197     2.1578355290
Bq        -5.2886618637    -1.8778832877     1.7976327415
Bq        -5.2904318416    -1.6604697027     2.2478862259
Bq        -5.2883078681    -1.9213660047     1.7075820446
Bq        -5.2907858371    -1.6169869857     2.3379369228
Bq        -5.2879538725    -1.9648487217     1.6175313477
Bq        -5.2911398327    -1.5735042687     2.4279876197
Bq        -5.2875998770    -2.0083314388     1.5274806508
Bq        -5.2893698548    -1.7909178537     1.9777341352
Bq        -5.2895529181    -1.6573837441     2.0243024511
Bq        -5.2888449270    -1.7443491781     1.8442010573
Bq        -5.2899069137    -1.6139010270     2.1143531480
Bq        -5.2884909314    -1.7878318951     1.7541503604
Bq        -5.2902609093    -1.5704183100     2.2044038449
Bq        -5.2881369358    -1.8313146121     1.6640996636
Bq        -5.2906149049    -1.5269355930     2.2944545417
Bq        -5.2877829403    -1.8747973291     1.5740489667
Bq        -5.2909689004    -1.4834528760     2.3845052386
Bq        -5.2874289447    -1.9182800461     1.4839982698
Bq        -5.2891989226    -1.7008664611     1.9342517542
Bq        -5.2893819859    -1.5673323514     1.9808200701
Bq        -5.2886739947    -1.6542977854     1.8007186763
Bq        -5.2897359814    -1.5238496344     2.0708707669
Bq        -5.2883199991    -1.6977805024     1.7106679794
Bq        -5.2900899770    -1.4803669174     2.1609214638
Bq        -5.2879660036    -1.7412632194     1.6206172825
Bq        -5.2904439726    -1.4368842004     2.2509721607
Bq        -5.2876120080    -1.7847459364     1.5305665856
Bq        -5.2907979682    -1.3934014834     2.3410228576
Bq        -5.2872580124    -1.8282286534     1.4405158888
Bq        -5.2890279903    -1.6108150684     1.8907693732
Bq        -5.2892110536    -1.4772809587     1.9373376890
Bq        -5.2885030624    -1.5642463927     1.7572362953
Bq        -5.2895650492    -1.4337982417     2.0273883859
Bq        -5.2881490669    -1.6077291097     1.6671855984
Bq        -5.2899190447    -1.3903155247     2.1174390828
Bq        -5.2877950713    -1.6512118267     1.5771349015
Bq        -5.2902730403    -1.3468328077     2.2074897797
Bq        -5.2874410757    -1.6946945437     1.4870842046
Bq        -5.2906270359    -1.3033500907     2.2975404766
Bq        -5.2870870801    -1.7381772607     1.3970335077
Bq        -5.2888570580    -1.5207636757     1.8472869921
Bq        -5.2890401213    -1.3872295660     1.8938553080
Bq        -5.2883321302    -1.4741950001     1.7137539142
Bq        -5.2893941169    -1.3437468490     1.9839060049
Bq        -5.2879781346    -1.5176777171     1.6237032173
Bq        -5.2897481125    -1.3002641320     2.0739567018
Bq        -5.2876241390    -1.5611604341     1.5336525205
Bq        -5.2901021080    -1.2567814150     2.1640073986
Bq        -5.2872701434    -1.6046431511     1.4436018236
Bq        -5.2904561036    -1.2132986980     2.2540580955
Bq        -5.2869161479    -1.6481258681     1.3535511267
Bq        -5.2886861257    -1.4307122830     1.8038046111
Bq        -5.2888691890    -1.2971781734     1.8503729270
Bq        -5.2881611979    -1.3841436074     1.6702715332
Bq        -5.2892231846    -1.2536954564     1.9404236238
Bq        -5.2878072023    -1.4276263244     1.5802208363
Bq        -5.2895771802    -1.2102127394     2.0304743207
Bq        -5.2874532067    -1.4711090414     1.4901701394
Bq        -5.2899311758    -1.1667300224     2.1205250176
Bq        -5.2870992112    -1.5145917584     1.4001194425
Bq        -5.2902851713    -1.1232473054     2.2105757145
Bq        -5.2867452156    -1.5580744754     1.3100687457
Bq        -5.2885151935    -1.3406608904     1.7603222301
Bq        -5.2886982568    -1.2071267807     1.8068905459
Bq        -5.2879902656    -1.2940922147     1.6267891522
Bq        -5.2890522523    -1.1636440637     1.8969412428
Bq        -5.2876362700    -1.3375749317     1.5367384553
Bq        -5.2894062479    -1.1201613467     1.9869919397
Bq        -5.2872822745    -1.3810576487     1.4466877584
Bq        -5.2897602435    -1.0766786297     2.0770426366
Bq        -5.2869282789    -1.4245403657     1.3566370615
Bq        -5.2901142391    -1.0331959127     2.1670933335
Bq        -5.2865742833    -1.4680230827     1.2665863646
Bq        -5.2883442612    -1.2506094977     1.7168398490
Bq        -5.2885273245    -1.1170753880     1.7634081649
Bq        -5.2878193333    -1.2040408220     1.5833067711
Bq        -5.2888813201    -1.0735926710     1.8534588618
Bq        -5.2874653378    -1.2475235390     1.4932560742
Bq        -5.2892353156    -1.0301099540     1.9435095587
Bq        -5.2871113422    -1.2910062560     1.4032053774
Bq        -5.2895893112    -0.9866272370     2.0335602555
Bq        -5.2867573466    -1.3344889731     1.3131546805
Bq        -5.2899433068    -0.9431445200     2.1236109524
Bq        -5.2864033510    -1.3779716901     1.2231039836
Bq        -5.2881733289    -1.1605581050     1.6733574680
Bq        -5.2883563922    -1.0270239954     1.7199257839
Bq        -5.2876484011    -1.1139894294     1.5398243901
Bq        -5.2887103878    -0.9835412784     1.8099764807
Bq        -5.2872944055    -1.1574721464     1.4497736932
Bq        -5.2890643834    -0.9400585614     1.9000271776
Bq        -5.2869404099    -1.2009548634     1.3597229963
Bq        -5.2894183789    -0.8965758443     1.9900778745
Bq        -5.2865864143    -1.2444375804     1.2696722994
Bq        -5.2897723745    -0.8530931273     2.0801285714
Bq        -5.2862324188    -1.2879202974     1.1796216026
Bq        -5.2880023966    -1.0705067124     1.6298750870
Bq        -5.2881854599    -0.9369726027     1.6764434028
Bq        -5.2874774688    -1.0239380367     1.4963420091
Bq        -5.2885394555    -0.8934898857     1.7664940997
Bq        -5.2871234732    -1.0674207537     1.4062913122
Bq        -5.2888934511    -0.8500071687     1.8565447966
Bq        -5.2867694776    -1.1109034707     1.3162406153
Bq        -5.2892474467    -0.8065244517     1.9465954935
Bq        -5.2864154821    -1.1543861877     1.2261899184
Bq        -5.2896014422    -0.7630417347     2.0366461904
Bq        -5.2860614865    -1.1978689047     1.1361392215
Bq        -5.2878314644    -0.9804553197     1.5863927059
Bq        -5.2880145277    -0.8469212100     1.6329610218
Bq        -5.2873065365    -0.9338866440     1.4528596280
Bq        -5.2883685232    -0.8034384930     1.7230117187
Bq        -5.2869525409    -0.9773693610     1.3628089311
Bq        -5.2887225188    -0.7599557760     1.8130624156
Bq        -5.2865985454    -1.0208520780     1.2727582343
Bq        -5.2890765144    -0.7164730590     1.9031131124
Bq        -5.2862445498    -1.0643347950     1.1827075374
Bq        -5.2894305100    -0.6729903420     1.9931638093
Bq        -5.2858905542    -1.1078175120     1.0926568405
Bq        -5.2876605321    -0.8904039270     1.5429103249
Bq        -5.2878435954    -0.7568698173     1.5894786408
Bq        -5.2871356042    -0.8438352514     1.4093772470
Bq        -5.2881975910    -0.7133871003     1.6795293376
Bq        -5.2867816087    -0.8873179684     1.3193265501
Bq        -5.2885515865    -0.6699043833     1.7695800345
Bq        -5.2864276131    -0.9308006854     1.2292758532
Bq        -5.2889055821    -0.6264216663     1.8596307314
Bq        -5.2860736175    -0.9742834024     1.1392251564
Bq        -5.2892595777    -0.5829389493     1.9496814283
Bq        -5.2857196219    -1.0177661194     1.0491744595
Bq        -5.2874895998    -0.8003525344     1.4994279439
Bq        -5.2876726631    -0.6668184247     1.5459962597
Bq        -5.2869646720    -0.7537838587     1.3658948660
Bq        -5.2880266587    -0.6233357077     1.6360469566
Bq        -5.2866106764    -0.7972665757     1.2758441691
Bq        -5.2883806543    -0.5798529907     1.7260976535
Bq        -5.2862566808    -0.8407492927     1.1857934722
Bq        -5.2887346498    -0.5363702737     1.8161483504
Bq        -5.2859026852    -0.8842320097     1.0957427753
Bq        -5.2890886454    -0.4928875567     1.9061990473
Bq        -5.2855486897    -0.9277147267     1.0056920784
Bq        -5.2873186675    -0.7103011417     1.4559455628
Bq        -5.2875017308    -0.5767670320     1.5025138787
Bq        -5.2867937397    -0.6637324660     1.3224124849
Bq        -5.2878557264    -0.5332843150     1.5925645756
Bq        -5.2864397441    -0.7072151830     1.2323617881
Bq        -5.2882097220    -0.4898015980     1.6826152725
Bq        -5.2860857485    -0.7506979000     1.1423110912
Bq        -5.2885637176    -0.4463188810     1.7726659693
Bq        -5.2857317530    -0.7941806170     1.0522603943
Bq        -5.2889177131    -0.4028361640     1.8627166662
Bq        -5.2853777574    -0.8376633340     0.9622096974
Bq        -5.2871477353    -0.6202497490     1.4124631818
Bq        -5.2873307986    -0.4867156393     1.4590314977
Bq        -5.2866228074    -0.5736810733     1.2789301039
Bq        -5.2876847941    -0.4432329223     1.5490821945
Bq        -5.2862688118    -0.6171637904     1.1888794070
Bq        -5.2880387897    -0.3997502053     1.6391328914
Bq        -5.2859148163    -0.6606465074     1.0988287101
Bq        -5.2883927853    -0.3562674883     1.7291835883
Bq        -5.2855608207    -0.7041292244     1.0087780133
Bq        -5.2887467809    -0.3127847713     1.8192342852
Bq        -5.2852068251    -0.7476119414     0.9187273164
Bq        -5.2869768030    -0.5301983563     1.3689808008
Bq        -5.2871598663    -0.3966642467     1.4155491166

1
2
3
4
5
6
7
8
9
10
11
12
13
14
15
16
17
18
19
20
21
22
23
24
25
26
27
28
29
30
31
32
33
34
35
36
37
38
39
40
41
42
43
44
45
46
47
48
49
50
51
52
53
54
55
56
57
58
59
60
61
62
63
64
65
66
67
68
69
70
71
72
73
74
75
76
77
78
79
80
81
82
83
84
85
86
87
88
89
90
91
92
93
94
95
96
97
98
99
100
101
102
103
104
105
106
107
108
109
110
111
112
113
114
115
116
117
118
119
120
121
122
123
124
125
126
127
128
129
130
131
132
133
134
135
136
137
138
139
140
141
142
143
144
145
146
147
148
149
150
151
152
153
154
155
156
157
158
159
160
161
162
163
164
165
166
167
168
169
170
171
172
173
174
175
176
177
178
179
180
181
182
183
184
185
186
187
188
189
190
191
192
193
194
195
196
197
198
199
200
201
202
203
204
205
206
207
208
209
210
211
212
213
214
215
216
217
218
219
220
221
222
223
224
225
226
227
228
229
230
231
232
233
234
235
236

