%nproc=8
%mem=1000MB
# rb3lyp/6-311+g** NMR geom=connectivity

Title

0 1
C    -4.0500558   -0.5771862    0.8136712
H    -5.0263804   -1.0082727    1.0024760
C    -3.9381552    0.6617804    0.2400876
H    -4.8252424    1.2338890   -0.0111295
C    -2.6768410    1.2433246    0.0057578
C    -1.4974121    0.5051527    0.2848253
C    -1.6508332   -0.7338728    0.9404026
H    -0.7713646   -1.2730967    1.2633753
C    -2.8898548   -1.2624035    1.1994307
H    -2.9683706   -2.2124563    1.7152676
C    -2.5773185    2.5963696   -0.4192930
H    -3.4870728    3.1412239   -0.6474055
C    -1.3741895    3.2147896   -0.4364030
H    -1.2997315    4.2742019   -0.6578144
C    -0.1719488    2.4994090   -0.1734588
C    -0.2043917    1.1018437    0.0192689
C     1.0513491    3.2042560   -0.0676222
H     1.0427344    4.2819499   -0.1896997
C     2.1942091    2.5487446    0.2579577
H     3.1168527    3.0912848    0.4334727
C     2.2216473    1.1336562    0.2934990
C     1.0486931    0.3945528    0.0302412
C     3.4483363    0.4614633    0.5573939
H     4.3095794    1.0606054    0.8334846
C     3.5427346   -0.8855926    0.4749463
H     4.4731467   -1.3939704    0.7038822
C     2.4490052   -1.6474447   -0.0196319
C     1.2150704   -1.0057258   -0.3013573
C     0.2531113   -1.7434440   -1.0216591
H    -0.6541356   -1.2535051   -1.3462847
C     0.4494193   -3.0628597   -1.3413779
H    -0.3083162   -3.5944309   -1.9054060
C     1.6251726   -3.7207967   -0.9552541
H     1.7670048   -4.7687404   -1.1927019
C     2.6109872   -3.0144177   -0.3183050
H     3.5525612   -3.4902813   -0.0646367
Bq         0.6873441035    -1.2723665647     0.0166095037
Bq         0.7670676311    -1.2191352625    -0.1589199457
Bq         0.6474823397    -1.2989822158     0.1043742284
Bq         0.8069293949    -1.1925196114    -0.2466846704
Bq         0.6076205759    -1.3255978669     0.1921389531
Bq         0.8467911587    -1.1659039603    -0.3344493951
Bq         0.5677588122    -1.3522135180     0.2799036779
Bq         0.8866529225    -1.1392883092    -0.4222141198
Bq         0.5278970484    -1.3788291691     0.3676684026
Bq         0.9265146862    -1.1126726581    -0.5099788446
Bq         0.7272058673    -1.2457509136    -0.0711552210
Bq         0.6763376301    -1.1759735820     0.0408427542
Bq         0.7560611577    -1.1227422798    -0.1346866953
Bq         0.6364758664    -1.2025892331     0.1286074789
Bq         0.7959229215    -1.0961266287    -0.2224514200
Bq         0.5966141026    -1.2292048842     0.2163722036
Bq         0.8357846853    -1.0695109776    -0.3102161447
Bq         0.5567523388    -1.2558205353     0.3041369283
Bq         0.8756464491    -1.0428953265    -0.3979808694
Bq         0.5168905750    -1.2824361864     0.3919016530
Bq         0.9155082129    -1.0162796754    -0.4857455941
Bq         0.7161993939    -1.1493579309    -0.0469219705
Bq         0.6653311568    -1.0795805993     0.0650760046
Bq         0.7450546843    -1.0263492971    -0.1104534448
Bq         0.6254693930    -1.1061962504     0.1528407293
Bq         0.7849164481    -0.9997336460    -0.1982181695
Bq         0.5856076292    -1.1328119015     0.2406054541
Bq         0.8247782119    -0.9731179949    -0.2859828942
Bq         0.5457458654    -1.1594275526     0.3283701788
Bq         0.8646399757    -0.9465023438    -0.3737476189
Bq         0.5058841016    -1.1860432037     0.4161349035
Bq         0.9045017395    -0.9198866927    -0.4615123436
Bq         0.7051929206    -1.0529649482    -0.0226887201
Bq         0.6543246834    -0.9831876166     0.0893092551
Bq         0.7340482110    -0.9299563144    -0.0862201943
Bq         0.6144629196    -1.0098032677     0.1770739798
Bq         0.7739099748    -0.9033406633    -0.1739849190
Bq         0.5746011558    -1.0364189188     0.2648387045
Bq         0.8137717386    -0.8767250122    -0.2617496438
Bq         0.5347393920    -1.0630345699     0.3526034292
Bq         0.8536335023    -0.8501093610    -0.3495143685
Bq         0.4948776283    -1.0896502210     0.4403681539
Bq         0.8934952661    -0.8234937099    -0.4372790932
Bq         0.6941864472    -0.9565719655     0.0015445304
Bq         0.6433182100    -0.8867946339     0.1135425055
Bq         0.7230417376    -0.8335633317    -0.0619869439
Bq         0.6034564462    -0.9134102850     0.2013072303
Bq         0.7629035014    -0.8069476805    -0.1497516686
Bq         0.5635946825    -0.9400259361     0.2890719550
Bq         0.8027652652    -0.7803320294    -0.2375163933
Bq         0.5237329187    -0.9666415872     0.3768366797
Bq         0.8426270290    -0.7537163783    -0.3252811180
Bq         0.4838711549    -0.9932572383     0.4646014044
Bq         0.8824887928    -0.7271007272    -0.4130458427
Bq         0.6831799738    -0.8601789828     0.0257777808
Bq         0.6323117367    -0.7904016512     0.1377757560
Bq         0.7120352642    -0.7371703489    -0.0377536934
Bq         0.5924499729    -0.8170173023     0.2255404807
Bq         0.7518970280    -0.7105546978    -0.1255184181
Bq         0.5525882091    -0.8436329534     0.3133052054
Bq         0.7917587918    -0.6839390467    -0.2132831428
Bq         0.5127264453    -0.8702486045     0.4010699301
Bq         0.8316205556    -0.6573233956    -0.3010478676
Bq         0.4728646815    -0.8968642556     0.4888346549
Bq         0.8714823194    -0.6307077445    -0.3888125923
Bq         0.6721735004    -0.7637860000     0.0500110313
Bq         0.6213052633    -0.6940086684     0.1620090065
Bq         0.7010287909    -0.6407773662    -0.0135204430
Bq         0.5814434995    -0.7206243196     0.2497737312
Bq         0.7408905546    -0.6141617151    -0.1012851677
Bq         0.5415817357    -0.7472399707     0.3375384559
Bq         0.7807523184    -0.5875460640    -0.1890498924
Bq         0.5017199719    -0.7738556218     0.4253031806
Bq         0.8206140822    -0.5609304129    -0.2768146171
Bq         0.4618582081    -0.8004712729     0.5130679053
Bq         0.8604758460    -0.5343147618    -0.3645793418
Bq         0.6611670271    -0.6673930173     0.0742442818
Bq         0.6102987899    -0.5976156857     0.1862422569
Bq         0.6900223175    -0.5443843835     0.0107128075
Bq         0.5704370261    -0.6242313368     0.2740069816
Bq         0.7298840813    -0.5177687324    -0.0770519172
Bq         0.5305752623    -0.6508469879     0.3617717063
Bq         0.7697458451    -0.4911530813    -0.1648166419
Bq         0.4907134985    -0.6774626391     0.4495364311
Bq         0.8096076088    -0.4645374302    -0.2525813666
Bq         0.4508517348    -0.7040782902     0.5373011558
Bq         0.8494693726    -0.4379217791    -0.3403460914
Bq         0.6501605537    -0.5710000346     0.0984775322
Bq         0.5992923165    -0.5012227030     0.2104755074
Bq         0.6790158441    -0.4479914008     0.0349460580
Bq         0.5594305528    -0.5278383541     0.2982402321
Bq         0.7188776079    -0.4213757497    -0.0528186668
Bq         0.5195687890    -0.5544540052     0.3860049568
Bq         0.7587393717    -0.3947600986    -0.1405833915
Bq         0.4797070252    -0.5810696563     0.4737696815
Bq         0.7986011355    -0.3681444475    -0.2283481162
Bq         0.4398452614    -0.6076853074     0.5615344062
Bq         0.8384628993    -0.3415287964    -0.3161128409
Bq         0.6391540803    -0.4746070519     0.1227107827
Bq         0.5882858432    -0.4048297203     0.2347087578
Bq         0.6680093707    -0.3515984181     0.0591793084
Bq         0.5484240794    -0.4314453714     0.3224734826
Bq         0.7078711345    -0.3249827670    -0.0285854163
Bq         0.5085623156    -0.4580610225     0.4102382073
Bq         0.7477328983    -0.2983671159    -0.1163501410
Bq         0.4687005518    -0.4846766736     0.4980029320
Bq         0.7875946621    -0.2717514648    -0.2041148657
Bq         0.4288387880    -0.5112923247     0.5857676567
Bq         0.8274564259    -0.2451358137    -0.2918795904
Bq         0.6281476070    -0.3782140692     0.1469440331
Bq         0.5772793698    -0.3084367376     0.2589420083
Bq         0.6570028974    -0.2552054354     0.0834125589
Bq         0.5374176060    -0.3350523887     0.3467067330
Bq         0.6968646612    -0.2285897843    -0.0043521658
Bq         0.4975558422    -0.3616680398     0.4344714577
Bq         0.7367264249    -0.2019741332    -0.0921168906
Bq         0.4576940784    -0.3882836909     0.5222361824
Bq         0.7765881887    -0.1753584821    -0.1798816153
Bq         0.4178323146    -0.4148993420     0.6100009071
Bq         0.8164499525    -0.1487428310    -0.2676463400
Bq         0.6171411336    -0.2818210865     0.1711772836
Bq         0.5662728964    -0.2120437549     0.2831752588
Bq         0.6459964240    -0.1588124527     0.1076458093
Bq         0.5264111326    -0.2386594060     0.3709399835
Bq         0.6858581878    -0.1321968016     0.0198810846
Bq         0.4865493688    -0.2652750571     0.4587047082
Bq         0.7257199516    -0.1055811505    -0.0678836401
Bq         0.4466876051    -0.2918907082     0.5464694329
Bq         0.7655817154    -0.0789654993    -0.1556483648
Bq         0.4068258413    -0.3185063593     0.6342341576
Bq         0.8054434791    -0.0523498482    -0.2434130895
Bq         0.6061346602    -0.1854281038     0.1954105340
Bq         0.5552664231    -0.1156507722     0.3074085092
Bq         0.6349899506    -0.0624194700     0.1318790598
Bq         0.5154046593    -0.1422664233     0.3951732339
Bq         0.6748517144    -0.0358038189     0.0441143351
Bq         0.4755428955    -0.1688820744     0.4829379586
Bq         0.7147134782    -0.0091881677    -0.0436503896
Bq         0.4356811317    -0.1954977255     0.5707026834
Bq         0.7545752420     0.0174274834    -0.1314151144
Bq         0.3958193679    -0.2221133766     0.6584674081
Bq         0.7944370058     0.0440431345    -0.2191798391
Bq         0.5951281868    -0.0890351211     0.2196437845
Bq         1.1966389650    -4.9352999078    -0.8629006261
Bq         1.2763624925    -4.8820686056    -1.0384300755
Bq         1.1567772012    -4.9619155589    -0.7751359013
Bq         1.3162242563    -4.8554529545    -1.1261948002
Bq         1.1169154374    -4.9885312100    -0.6873711766
Bq         1.3560860201    -4.8288373034    -1.2139595249
Bq         1.0770536736    -5.0151468611    -0.5996064519
Bq         1.3959477839    -4.8022216522    -1.3017242496
Bq         1.0371919098    -5.0417625122    -0.5118417272
Bq         1.4358095477    -4.7756060011    -1.3894889743
Bq         1.2365007288    -4.9086842567    -0.9506653508
Bq         1.1856324916    -4.8389069251    -0.8386673756
Bq         1.2653560192    -4.7856756229    -1.0141968250
Bq         1.1457707278    -4.8655225762    -0.7509026509
Bq         1.3052177830    -4.7590599717    -1.1019615497
Bq         1.1059089640    -4.8921382273    -0.6631379262
Bq         1.3450795467    -4.7324443206    -1.1897262745
Bq         1.0660472002    -4.9187538784    -0.5753732015
Bq         1.3849413105    -4.7058286695    -1.2774909992
Bq         1.0261854364    -4.9453695295    -0.4876084768
Bq         1.4248030743    -4.6792130184    -1.3652557239
Bq         1.2254942554    -4.8122912740    -0.9264321003
Bq         1.1746260182    -4.7425139424    -0.8144341251
Bq         1.2543495458    -4.6892826401    -0.9899635746
Bq         1.1347642544    -4.7691295935    -0.7266694004
Bq         1.2942113096    -4.6626669890    -1.0777282993
Bq         1.0949024907    -4.7957452446    -0.6389046757
Bq         1.3340730734    -4.6360513379    -1.1654930240
Bq         1.0550407269    -4.8223608957    -0.5511399510
Bq         1.3739348372    -4.6094356868    -1.2532577487
Bq         1.0151789631    -4.8489765468    -0.4633752263
Bq         1.4137966010    -4.5828200357    -1.3410224734
Bq         1.2144877820    -4.7158982912    -0.9021988499
Bq         1.1636195449    -4.6461209596    -0.7902008747
Bq         1.2433430724    -4.5928896574    -0.9657303241
Bq         1.1237577811    -4.6727366108    -0.7024361500
Bq         1.2832048362    -4.5662740063    -1.0534950488
Bq         1.0838960173    -4.6993522619    -0.6146714253
Bq         1.3230666000    -4.5396583552    -1.1412597735
Bq         1.0440342535    -4.7259679130    -0.5269067005
Bq         1.3629283638    -4.5130427041    -1.2290244982
Bq         1.0041724897    -4.7525835641    -0.4391419758
Bq         1.4027901276    -4.4864270530    -1.3167892230
Bq         1.2034813086    -4.6195053085    -0.8779655994
Bq         1.1526130715    -4.5497279769    -0.7659676242
Bq         1.2323365991    -4.4964966747    -0.9414970737
Bq         1.1127513077    -4.5763436280    -0.6782028995
Bq         1.2721983628    -4.4698810236    -1.0292617984
Bq         1.0728895439    -4.6029592791    -0.5904381748
Bq         1.3120601266    -4.4432653725    -1.1170265231
Bq         1.0330277801    -4.6295749303    -0.5026734501
Bq         1.3519218904    -4.4166497214    -1.2047912478
Bq         0.9931660163    -4.6561905814    -0.4149087254
Bq         1.3917836542    -4.3900340703    -1.2925559725
Bq         1.1924748353    -4.5231123258    -0.8537323489
Bq         1.1416065981    -4.4533349942    -0.7417343738
Bq         1.2213301257    -4.4001036920    -0.9172638232

1
2
3
4
5
6
7
8
9
10
11
12
13
14
15
16
17
18
19
20
21
22
23
24
25
26
27
28
29
30
31
32
33
34
35
36
37
38
39
40
41
42
43
44
45
46
47
48
49
50
51
52
53
54
55
56
57
58
59
60
61
62
63
64
65
66
67
68
69
70
71
72
73
74
75
76
77
78
79
80
81
82
83
84
85
86
87
88
89
90
91
92
93
94
95
96
97
98
99
100
101
102
103
104
105
106
107
108
109
110
111
112
113
114
115
116
117
118
119
120
121
122
123
124
125
126
127
128
129
130
131
132
133
134
135
136
137
138
139
140
141
142
143
144
145
146
147
148
149
150
151
152
153
154
155
156
157
158
159
160
161
162
163
164
165
166
167
168
169
170
171
172
173
174
175
176
177
178
179
180
181
182
183
184
185
186
187
188
189
190
191
192
193
194
195
196
197
198
199
200
201
202
203
204
205
206
207
208
209
210
211
212
213
214
215
216
217
218
219
220
221
222
223
224
225
226
227
228
229
230
231
232
233
234
235
236

