%nproc=8
%mem=1000MB
# rb3lyp/6-311+g** NMR geom=connectivity

Title

0 1
C    -4.0500558   -0.5771862    0.8136712
H    -5.0263804   -1.0082727    1.0024760
C    -3.9381552    0.6617804    0.2400876
H    -4.8252424    1.2338890   -0.0111295
C    -2.6768410    1.2433246    0.0057578
C    -1.4974121    0.5051527    0.2848253
C    -1.6508332   -0.7338728    0.9404026
H    -0.7713646   -1.2730967    1.2633753
C    -2.8898548   -1.2624035    1.1994307
H    -2.9683706   -2.2124563    1.7152676
C    -2.5773185    2.5963696   -0.4192930
H    -3.4870728    3.1412239   -0.6474055
C    -1.3741895    3.2147896   -0.4364030
H    -1.2997315    4.2742019   -0.6578144
C    -0.1719488    2.4994090   -0.1734588
C    -0.2043917    1.1018437    0.0192689
C     1.0513491    3.2042560   -0.0676222
H     1.0427344    4.2819499   -0.1896997
C     2.1942091    2.5487446    0.2579577
H     3.1168527    3.0912848    0.4334727
C     2.2216473    1.1336562    0.2934990
C     1.0486931    0.3945528    0.0302412
C     3.4483363    0.4614633    0.5573939
H     4.3095794    1.0606054    0.8334846
C     3.5427346   -0.8855926    0.4749463
H     4.4731467   -1.3939704    0.7038822
C     2.4490052   -1.6474447   -0.0196319
C     1.2150704   -1.0057258   -0.3013573
C     0.2531113   -1.7434440   -1.0216591
H    -0.6541356   -1.2535051   -1.3462847
C     0.4494193   -3.0628597   -1.3413779
H    -0.3083162   -3.5944309   -1.9054060
C     1.6251726   -3.7207967   -0.9552541
H     1.7670048   -4.7687404   -1.1927019
C     2.6109872   -3.0144177   -0.3183050
H     3.5525612   -3.4902813   -0.0646367
Bq         0.4774496637    -3.9346848078    -1.4558054842
Bq         0.1186937896    -4.1742256678    -0.6659229617
Bq         0.5173114275    -3.9080691567    -1.5435702089
Bq         0.3180026086    -4.0411474123    -1.1047465853
Bq         0.2671343714    -3.9713700807    -0.9927486101
Bq         0.3468578990    -3.9181387784    -1.1682780596
Bq         0.2272726076    -3.9979857318    -0.9049838854
Bq         0.3867196628    -3.8915231273    -1.2560427843
Bq         0.1874108439    -4.0246013829    -0.8172191607
Bq         0.4265814266    -3.8649074762    -1.3438075090
Bq         0.1475490801    -4.0512170340    -0.7294544360
Bq         0.4664431904    -3.8382918251    -1.4315722337
Bq         0.1076873163    -4.0778326851    -0.6416897113
Bq         0.5063049542    -3.8116761740    -1.5193369584
Bq         0.3069961352    -3.9447544296    -1.0805133348
Bq         0.2561278981    -3.8749770979    -0.9685153597
Bq         0.3358514256    -3.8217457957    -1.1440448091
Bq         0.2162661343    -3.9015927491    -0.8807506350
Bq         0.3757131894    -3.7951301446    -1.2318095338
Bq         0.1764043705    -3.9282084002    -0.7929859103
Bq         0.4155749532    -3.7685144935    -1.3195742585
Bq         0.1365426067    -3.9548240513    -0.7052211855
Bq         0.4554367170    -3.7418988424    -1.4073389832
Bq         0.0966808429    -3.9814397024    -0.6174564608
Bq         0.4952984808    -3.7152831913    -1.4951037080
Bq         0.2959896618    -3.8483614468    -1.0562800844
Bq         0.2451214247    -3.7785841152    -0.9442821092
Bq         0.3248449523    -3.7253528130    -1.1198115586
Bq         0.2052596609    -3.8051997663    -0.8565173845
Bq         0.3647067160    -3.6987371619    -1.2075762834
Bq         0.1653978971    -3.8318154174    -0.7687526598
Bq         0.4045684798    -3.6721215108    -1.2953410081
Bq         0.1255361333    -3.8584310686    -0.6809879351
Bq         0.4444302436    -3.6455058597    -1.3831057328
Bq         0.0856743695    -3.8850467197    -0.5932232104
Bq         0.4842920074    -3.6188902086    -1.4708704575
Bq         0.2849831885    -3.7519684641    -1.0320468339
Bq         0.2341149513    -3.6821911325    -0.9200488588
Bq         0.3138384789    -3.6289598303    -1.0955783082
Bq         0.1942531875    -3.7088067836    -0.8322841340
Bq         0.3537002427    -3.6023441792    -1.1833430329
Bq         0.1543914237    -3.7354224347    -0.7445194093
Bq         0.3935620065    -3.5757285281    -1.2711077576
Bq         0.1145296599    -3.7620380858    -0.6567546846
Bq         0.4334237702    -3.5491128770    -1.3588724823
Bq         0.0746678962    -3.7886537369    -0.5689899599
Bq         0.4732855340    -3.5224972259    -1.4466372070
Bq         0.2739767151    -3.6555754814    -1.0078135835
Bq         0.2231084779    -3.5857981498    -0.8958156083
Bq         0.3028320055    -3.5325668476    -1.0713450577
Bq         0.1832467142    -3.6124138009    -0.8080508836
Bq         0.3426937693    -3.5059511965    -1.1591097824
Bq         0.1433849504    -3.6390294520    -0.7202861589
Bq         0.3825555331    -3.4793355454    -1.2468745072
Bq         0.1035231866    -3.6656451031    -0.6325214342
Bq         0.4224172969    -3.4527198943    -1.3346392319
Bq         0.0636614228    -3.6922607542    -0.5447567095
Bq         0.4622790607    -3.4261042432    -1.4224039566
Bq         0.2629702417    -3.5591824987    -0.9835803330
Bq         0.2121020046    -3.4894051671    -0.8715823578
Bq         0.2918255321    -3.4361738649    -1.0471118073
Bq         0.1722402408    -3.5160208182    -0.7838176331
Bq         0.3316872959    -3.4095582138    -1.1348765320
Bq         0.1323784770    -3.5426364693    -0.6960529084
Bq         0.3715490597    -3.3829425627    -1.2226412567
Bq         0.0925167132    -3.5692521204    -0.6082881837
Bq         0.4114108235    -3.3563269116    -1.3104059814
Bq         0.0526549494    -3.5958677715    -0.5205234590
Bq         0.4512725873    -3.3297112605    -1.3981707061
Bq         0.2519637684    -3.4627895160    -0.9593470826
Bq         0.2010955312    -3.3930121844    -0.8473491074
Bq         0.2808190588    -3.3397808822    -1.0228785568
Bq         0.1612337674    -3.4196278355    -0.7595843827
Bq         0.3206808226    -3.3131652311    -1.1106432815
Bq         0.1213720036    -3.4462434866    -0.6718196580
Bq         0.3605425863    -3.2865495800    -1.1984080062
Bq         0.0815102398    -3.4728591377    -0.5840549332
Bq         0.4004043501    -3.2599339288    -1.2861727309
Bq         0.0416484760    -3.4994747888    -0.4962902085
Bq         0.4402661139    -3.2333182777    -1.3739374557
Bq         0.2409572950    -3.3663965333    -0.9351138321
Bq         0.1900890578    -3.2966192017    -0.8231158569
Bq         0.2698125854    -3.2433878995    -0.9986453064
Bq         0.1502272940    -3.3232348528    -0.7353511322
Bq         0.3096743492    -3.2167722484    -1.0864100311
Bq         0.1103655302    -3.3498505039    -0.6475864075
Bq         0.3495361130    -3.1901565972    -1.1741747558
Bq         0.0705037665    -3.3764661550    -0.5598216828
Bq         0.3893978768    -3.1635409461    -1.2619394805
Bq         0.0306420027    -3.4030818061    -0.4720569581
Bq         0.4292596405    -3.1369252950    -1.3497042052
Bq         0.2299508216    -3.2700035506    -0.9108805816
Bq         0.1790825845    -3.2002262190    -0.7988826065
Bq         0.2588061120    -3.1469949167    -0.9744120559
Bq         0.1392208207    -3.2268418701    -0.7111178818
Bq         0.2986678758    -3.1203792656    -1.0621767806
Bq         0.0993590569    -3.2534575212    -0.6233531570
Bq         0.3385296396    -3.0937636145    -1.1499415053
Bq         0.0594972931    -3.2800731723    -0.5355884323
Bq         0.3783914034    -3.0671479634    -1.2377062300
Bq         0.0196355293    -3.3066888234    -0.4478237076
Bq         0.4182531672    -3.0405323123    -1.3254709547
Bq         0.2189443482    -3.1736105679    -0.8866473312
Bq         0.1680761111    -3.1038332362    -0.7746493560
Bq         0.2477996387    -3.0506019340    -0.9501788054
Bq         0.1282143473    -3.1304488874    -0.6868846313
Bq         0.2876614024    -3.0239862829    -1.0379435302
Bq         0.0883525835    -3.1570645385    -0.5991199066
Bq         0.3275231662    -2.9973706318    -1.1257082549
Bq         0.0484908197    -3.1836801896    -0.5113551819
Bq         0.3673849300    -2.9707549807    -1.2134729796
Bq         0.0086290559    -3.2102958407    -0.4235904572
Bq         0.4072466938    -2.9441393296    -1.3012377043
Bq         0.2079378749    -3.0772175851    -0.8624140807
Bq         0.1570696377    -3.0074402535    -0.7504161056
Bq         0.2367931653    -2.9542089513    -0.9259455550
Bq         0.1172078739    -3.0340559046    -0.6626513808
Bq         0.2766549291    -2.9275933002    -1.0137102797
Bq         0.0773461101    -3.0606715558    -0.5748866561
Bq         0.3165166929    -2.9009776491    -1.1014750044
Bq         0.0374843463    -3.0872872069    -0.4871219314
Bq         0.3563784566    -2.8743619980    -1.1892397291
Bq        -0.0023774174    -3.1139028580    -0.3993572067
Bq         0.3962402204    -2.8477463469    -1.2770044538
Bq         0.1969314015    -2.9808246024    -0.8381808303
Bq         0.1460631643    -2.9110472708    -0.7261828551
Bq         0.2257866919    -2.8578159686    -0.9017123045
Bq         0.1062014005    -2.9376629219    -0.6384181304
Bq         0.2656484557    -2.8312003175    -0.9894770292
Bq         0.0663396368    -2.9642785730    -0.5506534057
Bq         0.3055102195    -2.8045846664    -1.0772417539
Bq         0.0264778730    -2.9908942241    -0.4628886810
Bq         0.3453719833    -2.7779690153    -1.1650064787
Bq        -0.0133838908    -3.0175098753    -0.3751239562
Bq         0.3852337471    -2.7513533642    -1.2527712034
Bq         0.1859249281    -2.8844316197    -0.8139475798
Bq         0.1350566910    -2.8146542881    -0.7019496046
Bq         0.2147802185    -2.7614229859    -0.8774790541
Bq         0.0951949272    -2.8412699392    -0.6141848799
Bq         0.2546419823    -2.7348073348    -0.9652437788
Bq         0.0553331634    -2.8678855903    -0.5264201552
Bq         0.2945037461    -2.7081916837    -1.0530085035
Bq         0.0154713996    -2.8945012414    -0.4386554305
Bq         0.3343655099    -2.6815760326    -1.1407732282
Bq        -0.0243903642    -2.9211168925    -0.3508907058
Bq         0.3742272737    -2.6549603815    -1.2285379529
Bq         0.1749184548    -2.7880386370    -0.7897143294
Bq         0.1240502176    -2.7182613054    -0.6777163542
Bq         0.2037737452    -2.6650300032    -0.8532458036
Bq         0.0841884538    -2.7448769565    -0.5899516295
Bq         0.2436355090    -2.6384143521    -0.9410105283
Bq         0.0443266900    -2.7714926076    -0.5021869048
Bq         0.2834972727    -2.6117987010    -1.0287752530
Bq         0.0044649262    -2.7981082587    -0.4144221800
Bq         0.3233590365    -2.5851830499    -1.1165399777
Bq        -0.0353968376    -2.8247239098    -0.3266574553
Bq         0.3632208003    -2.5585673988    -1.2043047025
Bq         0.1639119814    -2.6916456543    -0.7654810789
Bq         0.1130437442    -2.6218683227    -0.6534831037
Bq         0.1927672718    -2.5686370205    -0.8290125531
Bq         0.0731819804    -2.6484839738    -0.5657183790
Bq         0.2326290356    -2.5420213694    -0.9167772779
Bq         0.0333202166    -2.6750996249    -0.4779536543
Bq         0.2724907994    -2.5154057183    -1.0045420026
Bq        -0.0065415471    -2.7017152760    -0.3901889296
Bq         0.3123525632    -2.4887900672    -1.0923067273
Bq        -0.0464033109    -2.7283309271    -0.3024242049
Bq         0.3522143269    -2.4621744160    -1.1800714520
Bq         0.1529055080    -2.5952526716    -0.7412478284
Bq         0.1020372708    -2.5254753400    -0.6292498533
Bq         0.1817607984    -2.4722440378    -0.8047793027
Bq         0.0621755071    -2.5520909911    -0.5414851286
Bq         0.2216225622    -2.4456283867    -0.8925440274
Bq         0.0223137433    -2.5787066422    -0.4537204038
Bq         0.2614843260    -2.4190127355    -0.9803087521
Bq        -0.0175480205    -2.6053222933    -0.3659556791
Bq         0.3013460898    -2.3923970844    -1.0680734768
Bq        -0.0574097843    -2.6319379444    -0.2781909544
Bq         0.3412078536    -2.3657814333    -1.1558382015
Bq         0.1418990346    -2.4988596889    -0.7170145780
Bq         0.0910307975    -2.4290823573    -0.6050166028
Bq         0.1707543250    -2.3758510550    -0.7805460522
Bq         0.0511690337    -2.4556980084    -0.5172518781
Bq         0.2106160888    -2.3492354039    -0.8683107769
Bq         0.0113072699    -2.4823136595    -0.4294871534
Bq         0.2504778526    -2.3226197528    -0.9560755017
Bq        -0.0285544939    -2.5089293106    -0.3417224287
Bq         0.2903396164    -2.2960041017    -1.0438402264
Bq        -0.0684162577    -2.5355449617    -0.2539577040
Bq         0.3302013802    -2.2693884506    -1.1316049511
Bq         0.1308925613    -2.4024667062    -0.6927813275
Bq         0.0800243241    -2.3326893746    -0.5807833523
Bq         0.1597478517    -2.2794580723    -0.7563128018
Bq         0.0401625603    -2.3593050257    -0.4930186276
Bq         0.1996096155    -2.2528424212    -0.8440775265
Bq         0.0003007965    -2.3859206768    -0.4052539029
Bq         0.2394713793    -2.2262267701    -0.9318422512
Bq        -0.0395609673    -2.4125363279    -0.3174891782
Bq         0.2793331430    -2.1996111190    -1.0196069759
Bq        -0.0794227310    -2.4391519790    -0.2297244535

1
2
3
4
5
6
7
8
9
10
11
12
13
14
15
16
17
18
19
20
21
22
23
24
25
26
27
28
29
30
31
32
33
34
35
36
37
38
39
40
41
42
43
44
45
46
47
48
49
50
51
52
53
54
55
56
57
58
59
60
61
62
63
64
65
66
67
68
69
70
71
72
73
74
75
76
77
78
79
80
81
82
83
84
85
86
87
88
89
90
91
92
93
94
95
96
97
98
99
100
101
102
103
104
105
106
107
108
109
110
111
112
113
114
115
116
117
118
119
120
121
122
123
124
125
126
127
128
129
130
131
132
133
134
135
136
137
138
139
140
141
142
143
144
145
146
147
148
149
150
151
152
153
154
155
156
157
158
159
160
161
162
163
164
165
166
167
168
169
170
171
172
173
174
175
176
177
178
179
180
181
182
183
184
185
186
187
188
189
190
191
192
193
194
195
196
197
198
199
200
201
202
203
204
205
206
207
208
209
210
211
212
213
214
215
216
217
218
219
220
221
222
223
224
225
226
227
228
229
230
231
232
233
234
235
236

