%nproc=8
%mem=1000MB
# rb3lyp/6-311+g** NMR geom=connectivity

Title

0 1
C    -4.0500558   -0.5771862    0.8136712
H    -5.0263804   -1.0082727    1.0024760
C    -3.9381552    0.6617804    0.2400876
H    -4.8252424    1.2338890   -0.0111295
C    -2.6768410    1.2433246    0.0057578
C    -1.4974121    0.5051527    0.2848253
C    -1.6508332   -0.7338728    0.9404026
H    -0.7713646   -1.2730967    1.2633753
C    -2.8898548   -1.2624035    1.1994307
H    -2.9683706   -2.2124563    1.7152676
C    -2.5773185    2.5963696   -0.4192930
H    -3.4870728    3.1412239   -0.6474055
C    -1.3741895    3.2147896   -0.4364030
H    -1.2997315    4.2742019   -0.6578144
C    -0.1719488    2.4994090   -0.1734588
C    -0.2043917    1.1018437    0.0192689
C     1.0513491    3.2042560   -0.0676222
H     1.0427344    4.2819499   -0.1896997
C     2.1942091    2.5487446    0.2579577
H     3.1168527    3.0912848    0.4334727
C     2.2216473    1.1336562    0.2934990
C     1.0486931    0.3945528    0.0302412
C     3.4483363    0.4614633    0.5573939
H     4.3095794    1.0606054    0.8334846
C     3.5427346   -0.8855926    0.4749463
H     4.4731467   -1.3939704    0.7038822
C     2.4490052   -1.6474447   -0.0196319
C     1.2150704   -1.0057258   -0.3013573
C     0.2531113   -1.7434440   -1.0216591
H    -0.6541356   -1.2535051   -1.3462847
C     0.4494193   -3.0628597   -1.3413779
H    -0.3083162   -3.5944309   -1.9054060
C     1.6251726   -3.7207967   -0.9552541
H     1.7670048   -4.7687404   -1.1927019
C     2.6109872   -3.0144177   -0.3183050
H     3.5525612   -3.4902813   -0.0646367
Bq         1.3399499434     1.5934231495     1.1260704855
Bq         1.5453808580     1.7072444217     0.3613202927
Bq         1.3142710791     1.5791954904     1.2216642596
Bq         1.5710597223     1.7214720807     0.2657265187
Bq         1.4426654007     1.6503337856     0.7436953891
Bq         1.4132954858     1.7350888206     0.8530297028
Bq         1.4646532145     1.7635441386     0.6618421546
Bq         1.3876166215     1.7208611616     0.9486234769
Bq         1.4903320788     1.7777717977     0.5662483805
Bq         1.3619377572     1.7066335025     1.0442172510
Bq         1.5160109431     1.7919994567     0.4706546064
Bq         1.3362588929     1.6924058435     1.1398110251
Bq         1.5416898074     1.8062271157     0.3750608323
Bq         1.3105800285     1.6781781845     1.2354047992
Bq         1.5673686718     1.8204547748     0.2794670582
Bq         1.4389743502     1.7493164796     0.7574359287
Bq         1.4096044353     1.8340715146     0.8667702423
Bq         1.4609621639     1.8625268327     0.6755826942
Bq         1.3839255710     1.8198438556     0.9623640164
Bq         1.4866410283     1.8767544917     0.5799889201
Bq         1.3582467066     1.8056161966     1.0579577905
Bq         1.5123198926     1.8909821507     0.4843951460
Bq         1.3325678423     1.7913885375     1.1535515646
Bq         1.5379987569     1.9052098098     0.3888013719
Bq         1.3068889780     1.7771608785     1.2491453387
Bq         1.5636776212     1.9194374688     0.2932075978
Bq         1.4352832996     1.8482991736     0.7711764682
Bq         1.4059133848     1.9330542087     0.8805107819
Bq         1.4572711134     1.9615095267     0.6893232337
Bq         1.3802345204     1.9188265496     0.9761045560
Bq         1.4829499777     1.9757371857     0.5937294596
Bq         1.3545556561     1.9045988906     1.0716983301
Bq         1.5086288420     1.9899648448     0.4981356855
Bq         1.3288767918     1.8903712316     1.1672921042
Bq         1.5343077064     2.0041925038     0.4025419114
Bq         1.3031979275     1.8761435725     1.2628858783
Bq         1.5599865707     2.0184201628     0.3069481373
Bq         1.4315922491     1.9472818677     0.7849170078
Bq         1.4022223342     2.0320369027     0.8942513215
Bq         1.4535800629     2.0604922207     0.7030637733
Bq         1.3765434699     2.0178092437     0.9898450956
Bq         1.4792589272     2.0747198798     0.6074699992
Bq         1.3508646056     2.0035815846     1.0854388696
Bq         1.5049377915     2.0889475388     0.5118762251
Bq         1.3251857413     1.9893539256     1.1810326437
Bq         1.5306166558     2.1031751978     0.4162824510
Bq         1.2995068769     1.9751262666     1.2766264178
Bq         1.5562955202     2.1174028569     0.3206886769
Bq         1.4279011985     2.0462645617     0.7986575474
Bq         1.3985312837     2.1310195967     0.9079918610
Bq         1.4498890123     2.1594749148     0.7168043128
Bq         1.3728524194     2.1167919377     1.0035856351
Bq         1.4755678767     2.1737025738     0.6212105387
Bq         1.3471735550     2.1025642787     1.0991794092
Bq         1.5012467410     2.1879302328     0.5256167646
Bq         1.3214946907     2.0883366196     1.1947731833
Bq         1.5269256053     2.2021578919     0.4300229905
Bq         1.2958158264     2.0741089606     1.2903669574
Bq         1.5526044696     2.2163855509     0.3344292164
Bq         1.4242101480     2.1452472558     0.8123980869
Bq         1.6796600605    -2.8181151051     0.2469076649
Bq         1.7310177891    -2.7896597870     0.0557201167
Bq         1.6539811962    -2.8323427641     0.3425014390
Bq         1.7566966535    -2.7754321280    -0.0398736574
Bq         1.6283023319    -2.8465704231     0.4380952131
Bq         1.7823755178    -2.7612044690    -0.1354674315
Bq         1.6026234675    -2.8607980821     0.5336889871
Bq         1.8080543821    -2.7469768099    -0.2310612056
Bq         1.5769446032    -2.8750257412     0.6292827612
Bq         1.8337332464    -2.7327491509    -0.3266549797
Bq         1.7053389248    -2.8038874460     0.1513138908
Bq         1.6759690100    -2.7191324110     0.2606482044
Bq         1.7273267386    -2.6906770930     0.0694606562
Bq         1.6502901456    -2.7333600701     0.3562419785
Bq         1.7530056029    -2.6764494339    -0.0261331179
Bq         1.6246112813    -2.7475877291     0.4518357526
Bq         1.7786844673    -2.6622217749    -0.1217268920
Bq         1.5989324170    -2.7618153881     0.5474295267
Bq         1.8043633316    -2.6479941159    -0.2173206661
Bq         1.5732535527    -2.7760430471     0.6430233008
Bq         1.8300421959    -2.6337664569    -0.3129144401
Bq         1.7016478743    -2.7049047520     0.1650544303
Bq         1.6722779594    -2.6201497170     0.2743887440
Bq         1.7236356881    -2.5916943989     0.0832011958
Bq         1.6465990951    -2.6343773760     0.3699825181
Bq         1.7493145524    -2.5774667399    -0.0123925783
Bq         1.6209202308    -2.6486050350     0.4655762922
Bq         1.7749934167    -2.5632390809    -0.1079863524
Bq         1.5952413665    -2.6628326941     0.5611700663
Bq         1.8006722810    -2.5490114219    -0.2035801265
Bq         1.5695625021    -2.6770603531     0.6567638404
Bq         1.8263511454    -2.5347837628    -0.2991739006
Bq         1.6979568238    -2.6059220580     0.1787949699
Bq         1.6685869089    -2.5211670230     0.2881292835
Bq         1.7199446375    -2.4927117049     0.0969417353
Bq         1.6429080446    -2.5353946820     0.3837230576
Bq         1.7456235019    -2.4784840459     0.0013479613
Bq         1.6172291803    -2.5496223410     0.4793168317
Bq         1.7713023662    -2.4642563868    -0.0942458128
Bq         1.5915503159    -2.5638500000     0.5749106058
Bq         1.7969812305    -2.4500287278    -0.1898395869
Bq         1.5658714516    -2.5780776591     0.6705043799
Bq         1.8226600948    -2.4358010688    -0.2854333610
Bq         1.6942657732    -2.5069393639     0.1925355094
Bq         1.6648958584    -2.4221843289     0.3018698231
Bq         1.7162535870    -2.3937290109     0.1106822749
Bq         1.6392169940    -2.4364119879     0.3974635972
Bq         1.7419324513    -2.3795013518     0.0150885008
Bq         1.6135381297    -2.4506396470     0.4930573713
Bq         1.7676113157    -2.3652736928    -0.0805052733
Bq         1.5878592654    -2.4648673060     0.5886511454
Bq         1.7932901800    -2.3510460338    -0.1760990474
Bq         1.5621804011    -2.4790949650     0.6842449195
Bq         1.8189690443    -2.3368183748    -0.2716928215
Bq         1.6905747227    -2.4079566699     0.2062760490
Bq         1.6612048078    -2.3232016349     0.3156103627
Bq         1.7125625365    -2.2947463168     0.1244228145
Bq         1.6355259435    -2.3374292939     0.4112041368
Bq         1.7382414008    -2.2805186578     0.0288290404
Bq         1.6098470792    -2.3516569529     0.5067979108
Bq         1.7639202651    -2.2662909988    -0.0667647337
Bq         1.5841682149    -2.3658846120     0.6023916849
Bq         1.7895991294    -2.2520633397    -0.1623585078
Bq         1.5584893505    -2.3801122710     0.6979854590
Bq         1.8152779938    -2.2378356807    -0.2579522819
Bq         1.6868836721    -2.3089739759     0.2200165886
Bq         1.6575137573    -2.2242189408     0.3293509022
Bq         1.7088714859    -2.1957636228     0.1381633540
Bq         1.6318348930    -2.2384465999     0.4249446763
Bq         1.7345503503    -2.1815359638     0.0425695799
Bq         1.6061560286    -2.2526742589     0.5205384504
Bq         1.7602292146    -2.1673083047    -0.0530241942
Bq         1.5804771643    -2.2669019179     0.6161322245
Bq         1.7859080789    -2.1530806457    -0.1486179683
Bq         1.5547983000    -2.2811295770     0.7117259986
Bq         1.8115869432    -2.1388529867    -0.2442117424
Bq         1.6831926216    -2.2099912818     0.2337571281
Bq         1.6538227068    -2.1252362468     0.3430914418
Bq         1.7051804354    -2.0967809288     0.1519038936
Bq         1.6281438424    -2.1394639058     0.4386852159
Bq         1.7308592997    -2.0825532697     0.0563101195
Bq         1.6024649781    -2.1536915649     0.5342789900
Bq         1.7565381640    -2.0683256107    -0.0392836546
Bq         1.5767861138    -2.1679192239     0.6298727641
Bq         1.7822170284    -2.0540979517    -0.1348774287
Bq         1.5511072495    -2.1821468829     0.7254665382
Bq         1.8078958927    -2.0398702926    -0.2304712028
Bq         1.6795015711    -2.1110085878     0.2474976677
Bq         1.6501316562    -2.0262535528     0.3568319813
Bq         1.7014893849    -1.9977982347     0.1656444331
Bq         1.6244527919    -2.0404812118     0.4524257554
Bq         1.7271682492    -1.9835705757     0.0700506590
Bq         1.5987739276    -2.0547088708     0.5480195295
Bq         1.7528471135    -1.9693429167    -0.0255431150
Bq         1.5730950633    -2.0689365299     0.6436133036
Bq         1.7785259778    -1.9551152576    -0.1211368891
Bq         1.5474161989    -2.0831641889     0.7392070777
Bq         1.8042048422    -1.9408875986    -0.2167306632
Bq         1.6758105205    -2.0120258937     0.2612382072
Bq         1.6464406057    -1.9272708587     0.3705725209
Bq         1.6977983343    -1.8988155407     0.1793849727
Bq         1.6207617414    -1.9414985178     0.4661662950
Bq         1.7234771987    -1.8845878817     0.0837911986
Bq         1.5950828770    -1.9557261768     0.5617600691
Bq         1.7491560630    -1.8703602226    -0.0118025755
Bq         1.5694040127    -1.9699538358     0.6573538432
Bq         1.7748349273    -1.8561325636    -0.1073963496
Bq         1.5437251484    -1.9841814949     0.7529476173
Bq         1.8005137916    -1.8419049046    -0.2029901237
Bq         1.6721194700    -1.9130431997     0.2749787468
Bq         1.6427495551    -1.8282881647     0.3843130605
Bq         1.6941072838    -1.7998328466     0.1931255123
Bq         1.6170706908    -1.8425158237     0.4799068345
Bq         1.7197861481    -1.7856051876     0.0975317382
Bq         1.5913918265    -1.8567434828     0.5755006086
Bq         1.7454650124    -1.7713775286     0.0019379641
Bq         1.5657129622    -1.8709711418     0.6710943827
Bq         1.7711438768    -1.7571498696    -0.0936558100
Bq         1.5400340979    -1.8851988008     0.7666881568
Bq         1.7968227411    -1.7429222105    -0.1892495841
Bq         1.6684284195    -1.8140605057     0.2887192864
Bq         1.6390585046    -1.7293054707     0.3980536000
Bq         1.6904162333    -1.7008501526     0.2068660518
Bq         1.6133796403    -1.7435331297     0.4936473741
Bq         1.7160950976    -1.6866224936     0.1112722777
Bq         1.5877007760    -1.7577607887     0.5892411482
Bq         1.7417739619    -1.6723948346     0.0156785036
Bq         1.5620219116    -1.7719884478     0.6848349223
Bq         1.7674528262    -1.6581671755    -0.0799152705
Bq         1.5363430473    -1.7862161068     0.7804286964
Bq         1.7931316905    -1.6439395165    -0.1755090446
Bq         1.6647373689    -1.7150778116     0.3024598259
Bq         1.6353674541    -1.6303227766     0.4117941396
Bq         1.6867251827    -1.6018674586     0.2206065914
Bq         1.6096885898    -1.6445504357     0.5073879137
Bq         1.7124040470    -1.5876397995     0.1250128173
Bq         1.5840097254    -1.6587780947     0.6029816878
Bq         1.7380829114    -1.5734121405     0.0294190432
Bq         1.5583308611    -1.6730057537     0.6985754619
Bq         1.7637617757    -1.5591844815    -0.0661747309

1
2
3
4
5
6
7
8
9
10
11
12
13
14
15
16
17
18
19
20
21
22
23
24
25
26
27
28
29
30
31
32
33
34
35
36
37
38
39
40
41
42
43
44
45
46
47
48
49
50
51
52
53
54
55
56
57
58
59
60
61
62
63
64
65
66
67
68
69
70
71
72
73
74
75
76
77
78
79
80
81
82
83
84
85
86
87
88
89
90
91
92
93
94
95
96
97
98
99
100
101
102
103
104
105
106
107
108
109
110
111
112
113
114
115
116
117
118
119
120
121
122
123
124
125
126
127
128
129
130
131
132
133
134
135
136
137
138
139
140
141
142
143
144
145
146
147
148
149
150
151
152
153
154
155
156
157
158
159
160
161
162
163
164
165
166
167
168
169
170
171
172
173
174
175
176
177
178
179
180
181
182
183
184
185
186
187
188
189
190
191
192
193
194
195
196
197
198
199
200
201
202
203
204
205
206
207
208
209
210
211
212
213
214
215
216
217
218
219
220
221
222
223
224
225
226
227
228
229
230
231
232
233
234
235
236

