%nproc=8
%mem=1000MB
# rb3lyp/6-311+g** NMR geom=connectivity

Title

0 1
C    -4.0500558   -0.5771862    0.8136712
H    -5.0263804   -1.0082727    1.0024760
C    -3.9381552    0.6617804    0.2400876
H    -4.8252424    1.2338890   -0.0111295
C    -2.6768410    1.2433246    0.0057578
C    -1.4974121    0.5051527    0.2848253
C    -1.6508332   -0.7338728    0.9404026
H    -0.7713646   -1.2730967    1.2633753
C    -2.8898548   -1.2624035    1.1994307
H    -2.9683706   -2.2124563    1.7152676
C    -2.5773185    2.5963696   -0.4192930
H    -3.4870728    3.1412239   -0.6474055
C    -1.3741895    3.2147896   -0.4364030
H    -1.2997315    4.2742019   -0.6578144
C    -0.1719488    2.4994090   -0.1734588
C    -0.2043917    1.1018437    0.0192689
C     1.0513491    3.2042560   -0.0676222
H     1.0427344    4.2819499   -0.1896997
C     2.1942091    2.5487446    0.2579577
H     3.1168527    3.0912848    0.4334727
C     2.2216473    1.1336562    0.2934990
C     1.0486931    0.3945528    0.0302412
C     3.4483363    0.4614633    0.5573939
H     4.3095794    1.0606054    0.8334846
C     3.5427346   -0.8855926    0.4749463
H     4.4731467   -1.3939704    0.7038822
C     2.4490052   -1.6474447   -0.0196319
C     1.2150704   -1.0057258   -0.3013573
C     0.2531113   -1.7434440   -1.0216591
H    -0.6541356   -1.2535051   -1.3462847
C     0.4494193   -3.0628597   -1.3413779
H    -0.3083162   -3.5944309   -1.9054060
C     1.6251726   -3.7207967   -0.9552541
H     1.7670048   -4.7687404   -1.1927019
C     2.6109872   -3.0144177   -0.3183050
H     3.5525612   -3.4902813   -0.0646367
Bq        -0.1722090920     1.4096854204     0.5879111237
Bq        -0.0181359060     1.4950513746     0.0143484791
Bq        -0.1978879563     1.3954577614     0.6835048978
Bq         0.0075429583     1.5092790336    -0.0812452950
Bq        -0.2235668206     1.3812301024     0.7790986719
Bq         0.0332218226     1.5235066926    -0.1768390691
Bq        -0.0951724990     1.4523683975     0.3011298014
Bq        -0.1245424138     1.5371234325     0.4104641150
Bq        -0.0731846852     1.5655787506     0.2192765669
Bq        -0.1502212782     1.5228957735     0.5060578891
Bq        -0.0475058209     1.5798064096     0.1236827928
Bq        -0.1759001425     1.5086681145     0.6016516632
Bq        -0.0218269566     1.5940340686     0.0280890187
Bq        -0.2015790068     1.4944404554     0.6972454373
Bq         0.0038519078     1.6082617277    -0.0675047554
Bq        -0.2272578711     1.4802127964     0.7928392114
Bq         0.0295307721     1.6224893867    -0.1630985295
Bq        -0.0988635495     1.5513510915     0.3148703409
Bq        -0.1282334644     1.6361061265     0.4242046546
Bq        -0.0768757357     1.6645614446     0.2330171064
Bq        -0.1539123287     1.6218784675     0.5197984287
Bq        -0.0511968714     1.6787891036     0.1374233323
Bq        -0.1795911930     1.6076508085     0.6153922028
Bq        -0.0255180071     1.6930167627     0.0418295582
Bq        -0.2052700573     1.5934231495     0.7109859769
Bq         0.0001608572     1.7072444217    -0.0537642159
Bq        -0.2309489217     1.5791954904     0.8065797510
Bq         0.0258397216     1.7214720807    -0.1493579900
Bq        -0.1025546001     1.6503337856     0.3286108805
Bq        -0.1319245149     1.7350888206     0.4379451942
Bq        -0.0805667863     1.7635441386     0.2467576460
Bq        -0.1576033792     1.7208611616     0.5335389683
Bq        -0.0548879219     1.7777717977     0.1511638719
Bq        -0.1832822436     1.7066335025     0.6291327423
Bq        -0.0292090576     1.7919994567     0.0555700978
Bq        -0.2089611079     1.6924058435     0.7247265164
Bq        -0.0035301933     1.8062271157    -0.0400236763
Bq        -0.2346399722     1.6781781845     0.8203202905
Bq         0.0221486710     1.8204547748    -0.1356174504
Bq        -0.1062456506     1.7493164796     0.3423514201
Bq        -0.1356155655     1.8340715146     0.4516857337
Bq        -0.0842578368     1.8625268327     0.2604981855
Bq        -0.1612944298     1.8198438556     0.5472795078
Bq        -0.0585789725     1.8767544917     0.1649044114
Bq        -0.1869732941     1.8056161966     0.6428732819
Bq        -0.0329001082     1.8909821507     0.0693106373
Bq        -0.2126521584     1.7913885375     0.7384670560
Bq        -0.0072212438     1.9052098098    -0.0262831368
Bq        -0.2383310227     1.7771608785     0.8340608301
Bq         0.0184576205     1.9194374688    -0.1218769109
Bq        -0.1099367011     1.8482991736     0.3560919596
Bq        -0.1393066160     1.9330542087     0.4654262733
Bq        -0.0879488873     1.9615095267     0.2742387251
Bq        -0.1649854803     1.9188265496     0.5610200474
Bq        -0.0622700230     1.9757371857     0.1786449510
Bq        -0.1906643446     1.9045988906     0.6566138215
Bq        -0.0365911587     1.9899648448     0.0830511769
Bq        -0.2163432090     1.8903712316     0.7522075956
Bq        -0.0109122944     2.0041925038    -0.0125425972
Bq        -0.2420220733     1.8761435725     0.8478013697
Bq         0.0147665699     2.0184201628    -0.1081363713
Bq        -0.1136277517     1.9472818677     0.3698324992
Bq        -0.1429976665     2.0320369027     0.4791668128
Bq        -0.0916399379     2.0604922207     0.2879792646
Bq        -0.1686765308     2.0178092437     0.5747605869
Bq        -0.0659610736     2.0747198798     0.1923854906
Bq        -0.1943553952     2.0035815846     0.6703543610
Bq        -0.0402822092     2.0889475388     0.0967917165
Bq        -0.2200342595     1.9893539256     0.7659481351
Bq        -0.0146033449     2.1031751978     0.0011979424
Bq        -0.2457131238     1.9751262666     0.8615419092
Bq         0.0110755194     2.1174028569    -0.0943958317
Bq        -0.1173188022     2.0462645617     0.3835730387
Bq        -0.1466887171     2.1310195967     0.4929073524
Bq        -0.0953309884     2.1594749148     0.3017198042
Bq        -0.1723675814     2.1167919377     0.5885011265
Bq        -0.0696521241     2.1737025738     0.2061260301
Bq        -0.1980464457     2.1025642787     0.6840949006
Bq        -0.0439732598     2.1879302328     0.1105322560
Bq        -0.2237253100     2.0883366196     0.7796886747
Bq        -0.0182943954     2.2021578919     0.0149384819
Bq        -0.2494041743     2.0741089606     0.8752824488
Bq         0.0073844689     2.2163855509    -0.0806552922
Bq        -0.1210098527     2.1452472558     0.3973135783
Bq         0.1344400598    -2.8181151051    -0.1681768438
Bq         0.1857977884    -2.7896597870    -0.3593643920
Bq         0.1087611954    -2.8323427641    -0.0725830697
Bq         0.2114766527    -2.7754321280    -0.4549581660
Bq         0.0830823311    -2.8465704231     0.0230107044
Bq         0.2371555170    -2.7612044690    -0.5505519401
Bq         0.0574034668    -2.8607980821     0.1186044785
Bq         0.2628343814    -2.7469768099    -0.6461457142
Bq         0.0317246025    -2.8750257412     0.2141982526
Bq         0.2885132457    -2.7327491509    -0.7417394883
Bq         0.1601189241    -2.8038874460    -0.2637706179
Bq         0.1307490092    -2.7191324110    -0.1544363042
Bq         0.1821067379    -2.6906770930    -0.3456238524
Bq         0.1050701449    -2.7333600701    -0.0588425301
Bq         0.2077856022    -2.6764494339    -0.4412176265
Bq         0.0793912806    -2.7475877291     0.0367512440
Bq         0.2334644665    -2.6622217749    -0.5368114006
Bq         0.0537124163    -2.7618153881     0.1323450181
Bq         0.2591433308    -2.6479941159    -0.6324051747
Bq         0.0280335519    -2.7760430471     0.2279387922
Bq         0.2848221952    -2.6337664569    -0.7279989488
Bq         0.1564278735    -2.7049047520    -0.2500300783
Bq         0.1270579587    -2.6201497170    -0.1406957646
Bq         0.1784156873    -2.5916943989    -0.3318833128
Bq         0.1013790944    -2.6343773760    -0.0451019905
Bq         0.2040945517    -2.5774667399    -0.4274770869
Bq         0.0757002300    -2.6486050350     0.0504917835
Bq         0.2297734160    -2.5632390809    -0.5230708610
Bq         0.0500213657    -2.6628326941     0.1460855576
Bq         0.2554522803    -2.5490114219    -0.6186646351
Bq         0.0243425014    -2.6770603531     0.2416793317
Bq         0.2811311446    -2.5347837628    -0.7142584092
Bq         0.1527368230    -2.6059220580    -0.2362895387
Bq         0.1233669082    -2.5211670230    -0.1269552251
Bq         0.1747246368    -2.4927117049    -0.3181427733
Bq         0.0976880438    -2.5353946820    -0.0313614510
Bq         0.2004035011    -2.4784840459    -0.4137365474
Bq         0.0720091795    -2.5496223410     0.0642323231
Bq         0.2260823654    -2.4642563868    -0.5093303215
Bq         0.0463303152    -2.5638500000     0.1598260972
Bq         0.2517612298    -2.4500287278    -0.6049240956
Bq         0.0206514509    -2.5780776591     0.2554198713
Bq         0.2774400941    -2.4358010688    -0.7005178697
Bq         0.1490457725    -2.5069393639    -0.2225489992
Bq         0.1196758576    -2.4221843289    -0.1132146855
Bq         0.1710335863    -2.3937290109    -0.3044022337
Bq         0.0939969933    -2.4364119879    -0.0176209114
Bq         0.1967124506    -2.3795013518    -0.3999960078
Bq         0.0683181290    -2.4506396470     0.0779728627
Bq         0.2223913149    -2.3652736928    -0.4955897819
Bq         0.0426392646    -2.4648673060     0.1735666368
Bq         0.2480701792    -2.3510460338    -0.5911835560
Bq         0.0169604003    -2.4790949650     0.2691604109
Bq         0.2737490436    -2.3368183748    -0.6867773301
Bq         0.1453547219    -2.4079566699    -0.2088084596
Bq         0.1159848071    -2.3232016349    -0.0994741460
Bq         0.1673425357    -2.2947463168    -0.2906616942
Bq         0.0903059428    -2.3374292939    -0.0038803719
Bq         0.1930214000    -2.2805186578    -0.3862554683
Bq         0.0646270784    -2.3516569529     0.0917134022
Bq         0.2187002644    -2.2662909988    -0.4818492423
Bq         0.0389482141    -2.3658846120     0.1873071763
Bq         0.2443791287    -2.2520633397    -0.5774430164
Bq         0.0132693498    -2.3801122710     0.2829009504
Bq         0.2700579930    -2.2378356807    -0.6730367905
Bq         0.1416636714    -2.3089739759    -0.1950679201
Bq         0.1122937565    -2.2242189408    -0.0857336064
Bq         0.1636514852    -2.1957636228    -0.2769211546
Bq         0.0866148922    -2.2384465999     0.0098601677
Bq         0.1893303495    -2.1815359638    -0.3725149287
Bq         0.0609360279    -2.2526742589     0.1054539418
Bq         0.2150092138    -2.1673083047    -0.4681087028
Bq         0.0352571636    -2.2669019179     0.2010477159
Bq         0.2406880782    -2.1530806457    -0.5637024769
Bq         0.0095782993    -2.2811295770     0.2966414900
Bq         0.2663669425    -2.1388529867    -0.6592962510
Bq         0.1379726209    -2.2099912818    -0.1813273805
Bq         0.1086027060    -2.1252362468    -0.0719930668
Bq         0.1599604347    -2.0967809288    -0.2631806150
Bq         0.0829238417    -2.1394639058     0.0236007072
Bq         0.1856392990    -2.0825532697    -0.3587743891
Bq         0.0572449774    -2.1536915649     0.1191944813
Bq         0.2113181633    -2.0683256107    -0.4543681632
Bq         0.0315661130    -2.1679192239     0.2147882554
Bq         0.2369970276    -2.0540979517    -0.5499619373
Bq         0.0058872487    -2.1821468829     0.3103820295
Bq         0.2626758919    -2.0398702926    -0.6455557114
Bq         0.1342815703    -2.1110085878    -0.1675868409
Bq         0.1049116555    -2.0262535528    -0.0582525273
Bq         0.1562693841    -1.9977982347    -0.2494400755
Bq         0.0792327912    -2.0404812118     0.0373412468
Bq         0.1819482484    -1.9835705757    -0.3450338496
Bq         0.0535539268    -2.0547088708     0.1329350209
Bq         0.2076271128    -1.9693429167    -0.4406276237
Bq         0.0278750625    -2.0689365299     0.2285287950
Bq         0.2333059771    -1.9551152576    -0.5362213978
Bq         0.0021961982    -2.0831641889     0.3241225691
Bq         0.2589848414    -1.9408875986    -0.6318151719
Bq         0.1305905198    -2.0120258937    -0.1538463014
Bq         0.1012206049    -1.9272708587    -0.0445119877
Bq         0.1525783336    -1.8988155407    -0.2356995359
Bq         0.0755417406    -1.9414985178     0.0510817864
Bq         0.1782571979    -1.8845878817    -0.3312933100
Bq         0.0498628763    -1.9557261768     0.1466755605
Bq         0.2039360622    -1.8703602226    -0.4268870841
Bq         0.0241840120    -1.9699538358     0.2422693346
Bq         0.2296149266    -1.8561325636    -0.5224808582
Bq        -0.0014948523    -1.9841814949     0.3378631086
Bq         0.2552937909    -1.8419049046    -0.6180746323
Bq         0.1268994693    -1.9130431997    -0.1401057618
Bq         0.0975295544    -1.8282881647    -0.0307714482
Bq         0.1488872831    -1.7998328466    -0.2219589964
Bq         0.0718506901    -1.8425158237     0.0648223259
Bq         0.1745661474    -1.7856051876    -0.3175527705
Bq         0.0461718258    -1.8567434828     0.1604161000
Bq         0.2002450117    -1.7713775286    -0.4131465446

1
2
3
4
5
6
7
8
9
10
11
12
13
14
15
16
17
18
19
20
21
22
23
24
25
26
27
28
29
30
31
32
33
34
35
36
37
38
39
40
41
42
43
44
45
46
47
48
49
50
51
52
53
54
55
56
57
58
59
60
61
62
63
64
65
66
67
68
69
70
71
72
73
74
75
76
77
78
79
80
81
82
83
84
85
86
87
88
89
90
91
92
93
94
95
96
97
98
99
100
101
102
103
104
105
106
107
108
109
110
111
112
113
114
115
116
117
118
119
120
121
122
123
124
125
126
127
128
129
130
131
132
133
134
135
136
137
138
139
140
141
142
143
144
145
146
147
148
149
150
151
152
153
154
155
156
157
158
159
160
161
162
163
164
165
166
167
168
169
170
171
172
173
174
175
176
177
178
179
180
181
182
183
184
185
186
187
188
189
190
191
192
193
194
195
196
197
198
199
200
201
202
203
204
205
206
207
208
209
210
211
212
213
214
215
216
217
218
219
220
221
222
223
224
225
226
227
228
229
230
231
232
233
234
235
236

