%nproc=8
%mem=1000MB
# rb3lyp/6-311+g** NMR geom=connectivity

Title

0 1
C    -4.0500558   -0.5771862    0.8136712
H    -5.0263804   -1.0082727    1.0024760
C    -3.9381552    0.6617804    0.2400876
H    -4.8252424    1.2338890   -0.0111295
C    -2.6768410    1.2433246    0.0057578
C    -1.4974121    0.5051527    0.2848253
C    -1.6508332   -0.7338728    0.9404026
H    -0.7713646   -1.2730967    1.2633753
C    -2.8898548   -1.2624035    1.1994307
H    -2.9683706   -2.2124563    1.7152676
C    -2.5773185    2.5963696   -0.4192930
H    -3.4870728    3.1412239   -0.6474055
C    -1.3741895    3.2147896   -0.4364030
H    -1.2997315    4.2742019   -0.6578144
C    -0.1719488    2.4994090   -0.1734588
C    -0.2043917    1.1018437    0.0192689
C     1.0513491    3.2042560   -0.0676222
H     1.0427344    4.2819499   -0.1896997
C     2.1942091    2.5487446    0.2579577
H     3.1168527    3.0912848    0.4334727
C     2.2216473    1.1336562    0.2934990
C     1.0486931    0.3945528    0.0302412
C     3.4483363    0.4614633    0.5573939
H     4.3095794    1.0606054    0.8334846
C     3.5427346   -0.8855926    0.4749463
H     4.4731467   -1.3939704    0.7038822
C     2.4490052   -1.6474447   -0.0196319
C     1.2150704   -1.0057258   -0.3013573
C     0.2531113   -1.7434440   -1.0216591
H    -0.6541356   -1.2535051   -1.3462847
C     0.4494193   -3.0628597   -1.3413779
H    -0.3083162   -3.5944309   -1.9054060
C     1.6251726   -3.7207967   -0.9552541
H     1.7670048   -4.7687404   -1.1927019
C     2.6109872   -3.0144177   -0.3183050
H     3.5525612   -3.4902813   -0.0646367
Bq         3.1665724246     3.2267931872     0.6072484398
Bq         3.0941926593     3.2513606126     1.1013715127
Bq         3.1810483776     3.2218797021     0.5084238252
Bq         3.0797167063     3.2562740977     1.2001961273
Bq         3.1955243306     3.2169662170     0.4095992106
Bq         3.0652407532     3.2611875828     1.2990207419
Bq         3.2100002837     3.2120527319     0.3107745960
Bq         3.1376205185     3.2366201574     0.8048976690
Bq         3.1238566994     3.3414128578     0.8988606788
Bq         3.1528086055     3.3315858877     0.7012114496
Bq         3.1093807463     3.3463263429     0.9976852934
Bq         3.1672845585     3.3266724026     0.6023868350
Bq         3.0949047933     3.3512398280     1.0965099080
Bq         3.1817605115     3.3217589175     0.5035622204
Bq         3.0804288402     3.3561533131     1.1953345225
Bq         3.1962364646     3.3168454324     0.4047376059
Bq         3.0659528872     3.3610667981     1.2941591371
Bq         3.2107124176     3.3119319473     0.3059129913
Bq         3.1383326524     3.3364993727     0.8000360642
Bq         3.1245688333     3.4412920732     0.8939990740
Bq         3.1535207394     3.4314651030     0.6963498448
Bq         3.1100928803     3.4462055583     0.9928236886
Bq         3.1679966924     3.4265516179     0.5975252303
Bq         3.0956169272     3.4511190434     1.0916483032
Bq         3.1824726455     3.4216381329     0.4987006157
Bq         3.0811409742     3.4560325284     1.1904729178
Bq         3.1969485985     3.4167246478     0.3998760011
Bq         3.0666650211     3.4609460135     1.2892975324
Bq         3.2114245516     3.4118111627     0.3010513865
Bq         3.1390447864     3.4363785881     0.7951744594
Bq         3.1252809673     3.5411712886     0.8891374693
Bq         3.1542328733     3.5313443184     0.6914882401
Bq         3.1108050142     3.5460847737     0.9879620838
Bq         3.1687088264     3.5264308333     0.5926636255
Bq         3.0963290612     3.5509982587     1.0867866984
Bq         3.1831847794     3.5215173482     0.4938390109
Bq         3.0818531081     3.5559117438     1.1856113130
Bq         3.1976607325     3.5166038632     0.3950143963
Bq         3.0673771551     3.5608252289     1.2844359276
Bq         3.2121366855     3.5116903781     0.2961897817
Bq         3.1397569203     3.5362578035     0.7903128547
Bq         3.1259931012     3.6410505039     0.8842758645
Bq         3.1549450073     3.6312235338     0.6866266353
Bq         3.1115171481     3.6459639890     0.9831004791
Bq         3.1694209603     3.6263100487     0.5878020207
Bq         3.0970411951     3.6508774741     1.0819250937
Bq         3.1838969134     3.6213965636     0.4889774061
Bq         3.0825652421     3.6557909592     1.1807497082
Bq         3.1983728664     3.6164830785     0.3901527916
Bq         3.0680892890     3.6607044443     1.2795743228
Bq         3.2128488195     3.6115695935     0.2913281770
Bq         3.1404690542     3.6361370189     0.7854512499
Bq         3.1267052351     3.7409297193     0.8794142597
Bq         3.1556571412     3.7311027492     0.6817650305
Bq         3.1122292821     3.7458432044     0.9782388743
Bq         3.1701330943     3.7261892641     0.5829404160
Bq         3.0977533290     3.7507566895     1.0770634889
Bq         3.1846090473     3.7212757790     0.4841158014
Bq         3.0832773760     3.7556701746     1.1758881035
Bq         3.1990850004     3.7163622939     0.3852911868
Bq         3.0688014230     3.7605836597     1.2747127181
Bq         3.2135609534     3.7114488088     0.2864665722
Bq         3.1411811882     3.7360162342     0.7805896451
Bq         3.1274173691     3.8408089347     0.8745526550
Bq         3.1563692752     3.8309819645     0.6769034258
Bq         3.1129414160     3.8457224198     0.9733772695
Bq         3.1708452282     3.8260684795     0.5780788112
Bq         3.0984654630     3.8506359049     1.0722018841
Bq         3.1853211813     3.8211549944     0.4792541966
Bq         3.0839895099     3.8555493900     1.1710264987
Bq         3.1997971343     3.8162415093     0.3804295820
Bq         3.0695135569     3.8604628750     1.2698511133
Bq         3.2142730873     3.8113280242     0.2816049674
Bq         3.1418933221     3.8358954496     0.7757280404
Bq         3.1281295030     3.9406881501     0.8696910502
Bq         3.1570814091     3.9308611799     0.6720418210
Bq         3.1136535500     3.9456016352     0.9685156648
Bq         3.1715573621     3.9259476948     0.5732172064
Bq         3.0991775969     3.9505151202     1.0673402794
Bq         3.1860333152     3.9210342098     0.4743925918
Bq         3.0847016439     3.9554286053     1.1661648939
Bq         3.2005092682     3.9161207247     0.3755679773
Bq         3.0702256908     3.9603420904     1.2649895085
Bq         3.2149852213     3.9112072396     0.2767433627
Bq         3.1426054561     3.9357746650     0.7708664356
Bq         3.1288416370     4.0405673655     0.8648294454
Bq         3.1577935430     4.0307403953     0.6671802163
Bq         3.1143656839     4.0454808505     0.9636540600
Bq         3.1722694961     4.0258269102     0.5683556017
Bq         3.0998897309     4.0503943356     1.0624786746
Bq         3.1867454491     4.0209134251     0.4695309871
Bq         3.0854137778     4.0553078207     1.1613032892
Bq         3.2012214022     4.0159999400     0.3707063725
Bq         3.0709378248     4.0602213058     1.2601279038
Bq         3.2156973552     4.0110864550     0.2718817579
Bq         3.1433175900     4.0356538804     0.7660048308
Bq         3.1295537709     4.1404465808     0.8599678407
Bq         3.1585056770     4.1306196107     0.6623186115
Bq         3.1150778179     4.1453600659     0.9587924552
Bq         3.1729816300     4.1257061256     0.5634939969
Bq         3.1006018648     4.1502735510     1.0576170698
Bq         3.1874575831     4.1207926405     0.4646693823
Bq         3.0861259118     4.1551870361     1.1564416844
Bq         3.2019335361     4.1158791554     0.3658447677
Bq         3.0716499587     4.1601005212     1.2552662990
Bq         3.2164094892     4.1109656703     0.2670201531
Bq         3.1440297239     4.1355330958     0.7611432261
Bq         3.1302659048     4.2403257962     0.8551062359
Bq         3.1592178109     4.2304988260     0.6574570067
Bq         3.1157899518     4.2452392813     0.9539308505
Bq         3.1736937640     4.2255853410     0.5586323921
Bq         3.1013139988     4.2501527664     1.0527554651
Bq         3.1881697170     4.2206718559     0.4598077775
Bq         3.0868380457     4.2550662515     1.1515800796
Bq         3.2026456701     4.2157583708     0.3609831630
Bq         3.0723620927     4.2599797365     1.2504046942
Bq         3.2171216231     4.2108448857     0.2621585484
Bq         3.1447418579     4.2354123111     0.7562816213
Bq         3.1309780388     4.3402050116     0.8502446311
Bq         3.1599299449     4.3303780414     0.6525954020
Bq         3.1165020857     4.3451184967     0.9490692457
Bq         3.1744058979     4.3254645563     0.5537707874
Bq         3.1020261327     4.3500319818     1.0478938603
Bq         3.1888818510     4.3205510713     0.4549461728
Bq         3.0875501797     4.3549454668     1.1467184749
Bq         3.2033578040     4.3156375862     0.3561215582
Bq         3.0730742266     4.3598589519     1.2455430895
Bq         3.2178337570     4.3107241011     0.2572969436
Bq         3.1454539918     4.3352915265     0.7514200165
Bq         3.1943154656    -0.6537557573     1.1078183284
Bq         3.2232673717    -0.6635827274     0.9101690992
Bq         3.1798395125    -0.6488422722     1.2066429429
Bq         3.2377433247    -0.6684962125     0.8113444846
Bq         3.1653635595    -0.6439287871     1.3054675575
Bq         3.2522192777    -0.6734096976     0.7125198700
Bq         3.1508876064    -0.6390153020     1.4042921721
Bq         3.2666952308    -0.6783231827     0.6136952554
Bq         3.1364116534    -0.6341018169     1.5031167867
Bq         3.2811711838    -0.6832366678     0.5148706408
Bq         3.2087914186    -0.6586692423     1.0089937138
Bq         3.1950275995    -0.5538765419     1.1029567236
Bq         3.2239795056    -0.5637035121     0.9053074944
Bq         3.1805516465    -0.5489630568     1.2017813382
Bq         3.2384554586    -0.5686169971     0.8064828798
Bq         3.1660756934    -0.5440495717     1.3006059528
Bq         3.2529314117    -0.5735304822     0.7076582653
Bq         3.1515997404    -0.5391360866     1.3994305673
Bq         3.2674073647    -0.5784439673     0.6088336507
Bq         3.1371237873    -0.5342226016     1.4982551819
Bq         3.2818833178    -0.5833574524     0.5100090361
Bq         3.2095035526    -0.5587900270     1.0041321090
Bq         3.1957397335    -0.4539973265     1.0980951188
Bq         3.2246916395    -0.4638242967     0.9004458897
Bq         3.1812637804    -0.4490838414     1.1969197334
Bq         3.2391675926    -0.4687377818     0.8016212751
Bq         3.1667878274    -0.4441703563     1.2957443480
Bq         3.2536435456    -0.4736512668     0.7027966605
Bq         3.1523118743    -0.4392568713     1.3945689626
Bq         3.2681194987    -0.4785647519     0.6039720459
Bq         3.1378359213    -0.4343433862     1.4933935772
Bq         3.2825954517    -0.4834782370     0.5051474313
Bq         3.2102156865    -0.4589108116     0.9992705042
Bq         3.1964518674    -0.3541181111     1.0932335141
Bq         3.2254037735    -0.3639450813     0.8955842849
Bq         3.1819759144    -0.3492046261     1.1920581286
Bq         3.2398797265    -0.3688585664     0.7967596703
Bq         3.1674999613    -0.3442911410     1.2908827432
Bq         3.2543556796    -0.3737720515     0.6979350557
Bq         3.1530240083    -0.3393776559     1.3897073578
Bq         3.2688316326    -0.3786855365     0.5991104411
Bq         3.1385480552    -0.3344641708     1.4885319724
Bq         3.2833075857    -0.3835990216     0.5002858266
Bq         3.2109278204    -0.3590315962     0.9944088995
Bq         3.1971640013    -0.2542388958     1.0883719093
Bq         3.2261159074    -0.2640658659     0.8907226801
Bq         3.1826880483    -0.2493254107     1.1871965239
Bq         3.2405918605    -0.2689793510     0.7918980655
Bq         3.1682120952    -0.2444119256     1.2860211385
Bq         3.2550678135    -0.2738928361     0.6930734510
Bq         3.1537361422    -0.2394984405     1.3848457530
Bq         3.2695437666    -0.2788063212     0.5942488364
Bq         3.1392601892    -0.2345849554     1.4836703676
Bq         3.2840197196    -0.2837198063     0.4954242218
Bq         3.2116399544    -0.2591523808     0.9895472947
Bq         3.1978761353    -0.1543596804     1.0835103045
Bq         3.2268280414    -0.1641866505     0.8858610754
Bq         3.1834001822    -0.1494461953     1.1823349191
Bq         3.2413039944    -0.1691001356     0.7870364608
Bq         3.1689242292    -0.1445327102     1.2811595337
Bq         3.2557799475    -0.1740136207     0.6882118462
Bq         3.1544482761    -0.1396192251     1.3799841483
Bq         3.2702559005    -0.1789271058     0.5893872316
Bq         3.1399723231    -0.1347057400     1.4788087629
Bq         3.2847318535    -0.1838405909     0.4905626170
Bq         3.2123520883    -0.1592731655     0.9846856899
Bq         3.1985882692    -0.0544804650     1.0786486998
Bq         3.2275401753    -0.0643074352     0.8809994706
Bq         3.1841123162    -0.0495669799     1.1774733143
Bq         3.2420161284    -0.0692209203     0.7821748560
Bq         3.1696363631    -0.0446534948     1.2762979289

1
2
3
4
5
6
7
8
9
10
11
12
13
14
15
16
17
18
19
20
21
22
23
24
25
26
27
28
29
30
31
32
33
34
35
36
37
38
39
40
41
42
43
44
45
46
47
48
49
50
51
52
53
54
55
56
57
58
59
60
61
62
63
64
65
66
67
68
69
70
71
72
73
74
75
76
77
78
79
80
81
82
83
84
85
86
87
88
89
90
91
92
93
94
95
96
97
98
99
100
101
102
103
104
105
106
107
108
109
110
111
112
113
114
115
116
117
118
119
120
121
122
123
124
125
126
127
128
129
130
131
132
133
134
135
136
137
138
139
140
141
142
143
144
145
146
147
148
149
150
151
152
153
154
155
156
157
158
159
160
161
162
163
164
165
166
167
168
169
170
171
172
173
174
175
176
177
178
179
180
181
182
183
184
185
186
187
188
189
190
191
192
193
194
195
196
197
198
199
200
201
202
203
204
205
206
207
208
209
210
211
212
213
214
215
216
217
218
219
220
221
222
223
224
225
226
227
228
229
230
231
232
233
234
235
236

