%nproc=8
%mem=1000MB
# rb3lyp/6-311+g** NMR geom=connectivity

Title

0 1
C    -4.0500558   -0.5771862    0.8136712
H    -5.0263804   -1.0082727    1.0024760
C    -3.9381552    0.6617804    0.2400876
H    -4.8252424    1.2338890   -0.0111295
C    -2.6768410    1.2433246    0.0057578
C    -1.4974121    0.5051527    0.2848253
C    -1.6508332   -0.7338728    0.9404026
H    -0.7713646   -1.2730967    1.2633753
C    -2.8898548   -1.2624035    1.1994307
H    -2.9683706   -2.2124563    1.7152676
C    -2.5773185    2.5963696   -0.4192930
H    -3.4870728    3.1412239   -0.6474055
C    -1.3741895    3.2147896   -0.4364030
H    -1.2997315    4.2742019   -0.6578144
C    -0.1719488    2.4994090   -0.1734588
C    -0.2043917    1.1018437    0.0192689
C     1.0513491    3.2042560   -0.0676222
H     1.0427344    4.2819499   -0.1896997
C     2.1942091    2.5487446    0.2579577
H     3.1168527    3.0912848    0.4334727
C     2.2216473    1.1336562    0.2934990
C     1.0486931    0.3945528    0.0302412
C     3.4483363    0.4614633    0.5573939
H     4.3095794    1.0606054    0.8334846
C     3.5427346   -0.8855926    0.4749463
H     4.4731467   -1.3939704    0.7038822
C     2.4490052   -1.6474447   -0.0196319
C     1.2150704   -1.0057258   -0.3013573
C     0.2531113   -1.7434440   -1.0216591
H    -0.6541356   -1.2535051   -1.3462847
C     0.4494193   -3.0628597   -1.3413779
H    -0.3083162   -3.5944309   -1.9054060
C     1.6251726   -3.7207967   -0.9552541
H     1.7670048   -4.7687404   -1.1927019
C     2.6109872   -3.0144177   -0.3183050
H     3.5525612   -3.4902813   -0.0646367
Bq        -2.8871420170    -1.0674207537     1.4157258068
Bq        -2.8889119948    -0.8500071687     1.8659792912
Bq        -2.8867880214    -1.1109034707     1.3256751099
Bq        -2.8892659904    -0.8065244517     1.9560299881
Bq        -2.8864340258    -1.1543861877     1.2356244130
Bq        -2.8896199860    -0.7630417347     2.0460806850
Bq        -2.8860800302    -1.1978689047     1.1455737161
Bq        -2.8878500081    -0.9804553197     1.5958272006
Bq        -2.8880330714    -0.8469212100     1.6423955164
Bq        -2.8873250803    -0.9338866440     1.4622941226
Bq        -2.8883870670    -0.8034384930     1.7324462133
Bq        -2.8869710847    -0.9773693610     1.3722434258
Bq        -2.8887410626    -0.7599557760     1.8224969102
Bq        -2.8866170891    -1.0208520780     1.2821927289
Bq        -2.8890950581    -0.7164730590     1.9125476071
Bq        -2.8862630935    -1.0643347950     1.1921420320
Bq        -2.8894490537    -0.6729903420     2.0025983039
Bq        -2.8859090980    -1.1078175120     1.1020913351
Bq        -2.8876790758    -0.8904039270     1.5523448195
Bq        -2.8878621391    -0.7568698173     1.5989131354
Bq        -2.8871541480    -0.8438352514     1.4188117416
Bq        -2.8882161347    -0.7133871003     1.6889638323
Bq        -2.8868001524    -0.8873179684     1.3287610447
Bq        -2.8885701303    -0.6699043833     1.7790145291
Bq        -2.8864461568    -0.9308006854     1.2387103478
Bq        -2.8889241259    -0.6264216663     1.8690652260
Bq        -2.8860921613    -0.9742834024     1.1486596510
Bq        -2.8892781214    -0.5829389493     1.9591159229
Bq        -2.8857381657    -1.0177661194     1.0586089541
Bq        -2.8875081436    -0.8003525344     1.5088624385
Bq        -2.8876912069    -0.6668184247     1.5554307543
Bq        -2.8869832157    -0.7537838587     1.3753293606
Bq        -2.8880452024    -0.6233357077     1.6454814512
Bq        -2.8866292201    -0.7972665757     1.2852786637
Bq        -2.8883991980    -0.5798529907     1.7355321481
Bq        -2.8862752246    -0.8407492927     1.1952279668
Bq        -2.8887531936    -0.5363702737     1.8255828450
Bq        -2.8859212290    -0.8842320097     1.1051772699
Bq        -2.8891071892    -0.4928875567     1.9156335419
Bq        -2.8855672334    -0.9277147267     1.0151265730
Bq        -2.8873372113    -0.7103011417     1.4653800575
Bq        -2.8875202746    -0.5767670320     1.5119483733
Bq        -2.8868122834    -0.6637324660     1.3318469795
Bq        -2.8878742702    -0.5332843150     1.6019990702
Bq        -2.8864582879    -0.7072151830     1.2417962827
Bq        -2.8882282657    -0.4898015980     1.6920497671
Bq        -2.8861042923    -0.7506979000     1.1517455858
Bq        -2.8885822613    -0.4463188810     1.7821004640
Bq        -2.8857502967    -0.7941806170     1.0616948889
Bq        -2.8889362569    -0.4028361640     1.8721511608
Bq        -2.8853963011    -0.8376633340     0.9716441920
Bq        -2.8871662790    -0.6202497490     1.4218976764
Bq        -2.8873493423    -0.4867156393     1.4684659923
Bq        -2.8866413512    -0.5736810733     1.2883645985
Bq        -2.8877033379    -0.4432329223     1.5585166892
Bq        -2.8862873556    -0.6171637904     1.1983139016
Bq        -2.8880573335    -0.3997502053     1.6485673860
Bq        -2.8859333600    -0.6606465074     1.1082632047
Bq        -2.8884113290    -0.3562674883     1.7386180829
Bq        -2.8855793644    -0.7041292244     1.0182125079
Bq        -2.8887653246    -0.3127847713     1.8286687798
Bq        -2.8852253689    -0.7476119414     0.9281618110
Bq        -2.8869953467    -0.5301983563     1.3784152954
Bq        -2.8871784100    -0.3966642467     1.4249836112
Bq        -2.8864704189    -0.4836296807     1.2448822175
Bq        -2.8875324056    -0.3531815297     1.5150343081
Bq        -2.8861164233    -0.5271123977     1.1548315206
Bq        -2.8878864012    -0.3096988127     1.6050850050
Bq        -2.8857624277    -0.5705951147     1.0647808237
Bq        -2.8882403968    -0.2662160957     1.6951357019
Bq        -2.8854084322    -0.6140778317     0.9747301268
Bq        -2.8885943923    -0.2227333786     1.7851863988
Bq        -2.8850544366    -0.6575605487     0.8846794300
Bq        -2.8868244145    -0.4401469637     1.3349329144
Bq        -2.8870074778    -0.3066128540     1.3815012302
Bq        -2.8862994866    -0.3935782880     1.2013998364
Bq        -2.8873614733    -0.2631301370     1.4715519271
Bq        -2.8859454910    -0.4370610050     1.1113491396
Bq        -2.8877154689    -0.2196474200     1.5616026240
Bq        -2.8855914955    -0.4805437220     1.0212984427
Bq        -2.8880694645    -0.1761647030     1.6516533209
Bq        -2.8852374999    -0.5240264390     0.9312477458
Bq        -2.8884234601    -0.1326819860     1.7417040177
Bq        -2.8848835043    -0.5675091560     0.8411970489
Bq        -2.8866534822    -0.3500955710     1.2914505333
Bq        -2.8868365455    -0.2165614613     1.3380188492
Bq        -2.8861285543    -0.3035268953     1.1579174554
Bq        -2.8871905411    -0.1730787443     1.4280695461
Bq        -2.8857745588    -0.3470096123     1.0678667585
Bq        -2.8875445366    -0.1295960273     1.5181202429
Bq        -2.8854205632    -0.3904923293     0.9778160617
Bq        -2.8878985322    -0.0861133103     1.6081709398
Bq        -2.8850665676    -0.4339750463     0.8877653648
Bq        -2.8882525278    -0.0426305933     1.6982216367
Bq        -2.8847125721    -0.4774577634     0.7977146679
Bq        -2.8864825499    -0.2600441783     1.2479681523
Bq        -2.8866656132    -0.1265100687     1.2945364681
Bq        -2.8859576221    -0.2134755027     1.1144350744
Bq        -2.8870196088    -0.0830273517     1.3845871650
Bq        -2.8856036265    -0.2569582197     1.0243843775
Bq        -2.8873736044    -0.0395446346     1.4746378619
Bq        -2.8852496309    -0.3004409367     0.9343336806
Bq        -2.8877275999     0.0039380824     1.5646885588
Bq        -2.8848956354    -0.3439236537     0.8442829837
Bq        -2.8880815955     0.0474207994     1.6547392557
Bq        -2.8845416398    -0.3874063707     0.7542322869
Bq        -2.8863116176    -0.1699927857     1.2044857713
Bq        -2.8864946809    -0.0364586760     1.2510540871
Bq        -2.8857866898    -0.1234241100     1.0709526934
Bq        -2.8868486765     0.0070240410     1.3411047840
Bq        -2.8854326942    -0.1669068270     0.9809019965
Bq        -2.8872026721     0.0505067580     1.4311554809
Bq        -2.8850786987    -0.2103895440     0.8908512996
Bq        -2.8875566677     0.0939894750     1.5212061778
Bq        -2.8847247031    -0.2538722610     0.8008006027
Bq        -2.8879106632     0.1374721920     1.6112568746
Bq        -2.8843707075    -0.2973549780     0.7107499058
Bq        -2.8861406854    -0.0799413930     1.1610033902
Bq        -2.8863237487     0.0535927167     1.2075717061
Bq        -2.8856157575    -0.0333727173     1.0274703123
Bq        -2.8866777442     0.0970754337     1.2976224030
Bq        -2.8852617620    -0.0768554343     0.9374196154
Bq        -2.8870317398     0.1405581507     1.3876730999
Bq        -2.8849077664    -0.1203381513     0.8473689186
Bq        -2.8873857354     0.1840408677     1.4777237967
Bq        -2.8845537708    -0.1638208683     0.7573182217
Bq        -2.8877397310     0.2275235847     1.5677744936
Bq        -2.8841997752    -0.2073035853     0.6672675248
Bq        -2.8859697531     0.0101099997     1.1175210092
Bq        -2.8861528164     0.1436441094     1.1640893251
Bq        -2.8854448252     0.0566786753     0.9839879313
Bq        -2.8865068120     0.1871268264     1.2541400219
Bq        -2.8850908297     0.0131959583     0.8939372344
Bq        -2.8868608075     0.2306095434     1.3441907188
Bq        -2.8847368341    -0.0302867587     0.8038865375
Bq        -2.8872148031     0.2740922604     1.4342414157
Bq        -2.8843828385    -0.0737694757     0.7138358406
Bq        -2.8875687987     0.3175749774     1.5242921126
Bq        -2.8840288430    -0.1172521927     0.6237851438
Bq        -2.8857988208     0.1001613924     1.0740386282
Bq        -2.8859818841     0.2336955020     1.1206069440
Bq        -2.8852738930     0.1467300680     0.9405055503
Bq        -2.8863358797     0.2771782190     1.2106576409
Bq        -2.8849198974     0.1032473510     0.8504548534
Bq        -2.8866898753     0.3206609360     1.3007083378
Bq        -2.8845659018     0.0597646340     0.7604041565
Bq        -2.8870438708     0.3641436530     1.3907590347
Bq        -2.8842119063     0.0162819170     0.6703534596
Bq        -2.8873978664     0.4076263700     1.4808097316
Bq        -2.8838579107    -0.0272008000     0.5803027627
Bq        -2.8856278885     0.1902127850     1.0305562471
Bq        -2.8858109518     0.3237468947     1.0771245630
Bq        -2.8851029607     0.2367814607     0.8970231692
Bq        -2.8861649474     0.3672296117     1.1671752599
Bq        -2.8847489651     0.1932987437     0.8069724723
Bq        -2.8865189430     0.4107123287     1.2572259568
Bq        -2.8843949696     0.1498160267     0.7169217755
Bq        -2.8868729386     0.4541950457     1.3472766536
Bq        -2.8840409740     0.1063333097     0.6268710786
Bq        -2.8872269341     0.4976777627     1.4373273505
Bq        -2.8836869784     0.0628505927     0.5368203817
Bq        -2.8854569563     0.2802641777     0.9870738661
Bq        -2.8856400196     0.4137982874     1.0336421820
Bq        -2.8849320284     0.3268328534     0.8535407882
Bq        -2.8859940151     0.4572810044     1.1236928788
Bq        -2.8845780329     0.2833501364     0.7634900913
Bq        -2.8863480107     0.5007637214     1.2137435757
Bq        -2.8842240373     0.2398674194     0.6734393944
Bq        -2.8867020063     0.5442464384     1.3037942726
Bq        -2.8838700417     0.1963847023     0.5833886975
Bq        -2.8870560019     0.5877291554     1.3938449695
Bq        -2.8835160461     0.1529019853     0.4933380007
Bq        -2.8852860240     0.3703155704     0.9435914851
Bq        -2.8854690873     0.5038496800     0.9901598009
Bq        -2.8847610962     0.4168842460     0.8100584072
Bq        -2.8858230829     0.5473323970     1.0802104978
Bq        -2.8844071006     0.3734015290     0.7200077103
Bq        -2.8861770784     0.5908151140     1.1702611947
Bq        -2.8840531050     0.3299188120     0.6299570134
Bq        -2.8865310740     0.6342978311     1.2603118916
Bq        -2.8836991094     0.2864360950     0.5399063165
Bq        -2.8868850696     0.6777805481     1.3503625885
Bq        -2.8833451139     0.2429533780     0.4498556196
Bq        -2.8851150917     0.4603669630     0.9001091040
Bq        -2.8852981550     0.5939010727     0.9466774199
Bq        -2.8845901639     0.5069356387     0.7665760261
Bq        -2.8856521506     0.6373837897     1.0367281168
Bq        -2.8842361683     0.4634529217     0.6765253292
Bq        -2.8860061462     0.6808665067     1.1267788137
Bq        -2.8838821727     0.4199702047     0.5864746324
Bq        -2.8863601417     0.7243492237     1.2168295105
Bq        -2.8835281772     0.3764874877     0.4964239355
Bq        -2.8867141373     0.7678319407     1.3068802074
Bq        -2.8831741816     0.3330047707     0.4063732386
Bq        -2.8849441595     0.5504183557     0.8566267230
Bq        -2.8851272228     0.6839524654     0.9031950389
Bq        -2.8844192316     0.5969870314     0.7230936451
Bq        -2.8854812183     0.7274351824     0.9932457357
Bq        -2.8840652360     0.5535043144     0.6330429482
Bq        -2.8858352139     0.7709178994     1.0832964326

1
2
3
4
5
6
7
8
9
10
11
12
13
14
15
16
17
18
19
20
21
22
23
24
25
26
27
28
29
30
31
32
33
34
35
36
37
38
39
40
41
42
43
44
45
46
47
48
49
50
51
52
53
54
55
56
57
58
59
60
61
62
63
64
65
66
67
68
69
70
71
72
73
74
75
76
77
78
79
80
81
82
83
84
85
86
87
88
89
90
91
92
93
94
95
96
97
98
99
100
101
102
103
104
105
106
107
108
109
110
111
112
113
114
115
116
117
118
119
120
121
122
123
124
125
126
127
128
129
130
131
132
133
134
135
136
137
138
139
140
141
142
143
144
145
146
147
148
149
150
151
152
153
154
155
156
157
158
159
160
161
162
163
164
165
166
167
168
169
170
171
172
173
174
175
176
177
178
179
180
181
182
183
184
185
186
187
188
189
190
191
192
193
194
195
196
197
198
199
200
201
202
203
204
205
206
207
208
209
210
211
212
213
214
215
216
217
218
219
220
221
222
223
224
225
226
227
228
229
230
231
232
233
234
235
236

