%nproc=8
%mem=1000MB
# rb3lyp/6-311+g** NMR geom=connectivity

Title

0 1
C    -4.0500558   -0.5771862    0.8136712
H    -5.0263804   -1.0082727    1.0024760
C    -3.9381552    0.6617804    0.2400876
H    -4.8252424    1.2338890   -0.0111295
C    -2.6768410    1.2433246    0.0057578
C    -1.4974121    0.5051527    0.2848253
C    -1.6508332   -0.7338728    0.9404026
H    -0.7713646   -1.2730967    1.2633753
C    -2.8898548   -1.2624035    1.1994307
H    -2.9683706   -2.2124563    1.7152676
C    -2.5773185    2.5963696   -0.4192930
H    -3.4870728    3.1412239   -0.6474055
C    -1.3741895    3.2147896   -0.4364030
H    -1.2997315    4.2742019   -0.6578144
C    -0.1719488    2.4994090   -0.1734588
C    -0.2043917    1.1018437    0.0192689
C     1.0513491    3.2042560   -0.0676222
H     1.0427344    4.2819499   -0.1896997
C     2.1942091    2.5487446    0.2579577
H     3.1168527    3.0912848    0.4334727
C     2.2216473    1.1336562    0.2934990
C     1.0486931    0.3945528    0.0302412
C     3.4483363    0.4614633    0.5573939
H     4.3095794    1.0606054    0.8334846
C     3.5427346   -0.8855926    0.4749463
H     4.4731467   -1.3939704    0.7038822
C     2.4490052   -1.6474447   -0.0196319
C     1.2150704   -1.0057258   -0.3013573
C     0.2531113   -1.7434440   -1.0216591
H    -0.6541356   -1.2535051   -1.3462847
C     0.4494193   -3.0628597   -1.3413779
H    -0.3083162   -3.5944309   -1.9054060
C     1.6251726   -3.7207967   -0.9552541
H     1.7670048   -4.7687404   -1.1927019
C     2.6109872   -3.0144177   -0.3183050
H     3.5525612   -3.4902813   -0.0646367
Bq        -1.4859377992     2.9271555411    -0.0593593149
Bq        -1.5583175645     2.9517229665     0.4347637581
Bq        -1.4714618462     2.9222420560    -0.1581839294
Bq        -1.5727935175     2.9566364516     0.5335883726
Bq        -1.4569858931     2.9173285709    -0.2570085440
Bq        -1.5872694705     2.9615499366     0.6324129872
Bq        -1.4425099401     2.9124150858    -0.3558331586
Bq        -1.5148897053     2.9369825112     0.1382899143
Bq        -1.5286535244     3.0417752117     0.2322529241
Bq        -1.4997016183     3.0319482415     0.0346036950
Bq        -1.5431294775     3.0466886968     0.3310775387
Bq        -1.4852256653     3.0270347564    -0.0642209196
Bq        -1.5576054305     3.0516021819     0.4299021533
Bq        -1.4707497122     3.0221212714    -0.1630455342
Bq        -1.5720813836     3.0565156669     0.5287267679
Bq        -1.4562737592     3.0172077863    -0.2618701488
Bq        -1.5865573366     3.0614291520     0.6275513825
Bq        -1.4417978062     3.0122943012    -0.3606947634
Bq        -1.5141775714     3.0368617266     0.1334283095
Bq        -1.5279413905     3.1416544271     0.2273913194
Bq        -1.4989894844     3.1318274569     0.0297420902
Bq        -1.5424173435     3.1465679121     0.3262159339
Bq        -1.4845135313     3.1269139718    -0.0690825244
Bq        -1.5568932966     3.1514813972     0.4250405485
Bq        -1.4700375783     3.1220004867    -0.1679071390
Bq        -1.5713692496     3.1563948823     0.5238651631
Bq        -1.4555616253     3.1170870017    -0.2667317536
Bq        -1.5858452027     3.1613083674     0.6226897777
Bq        -1.4410856722     3.1121735166    -0.3655563681
Bq        -1.5134654374     3.1367409420     0.1285667048
Bq        -1.5272292565     3.2415336424     0.2225297146
Bq        -1.4982773504     3.2317066723     0.0248804854
Bq        -1.5417052096     3.2464471275     0.3213543292
Bq        -1.4838013974     3.2267931872    -0.0739441292
Bq        -1.5561811626     3.2513606126     0.4201789438
Bq        -1.4693254444     3.2218797021    -0.1727687437
Bq        -1.5706571157     3.2562740977     0.5190035583
Bq        -1.4548494913     3.2169662170    -0.2715933583
Bq        -1.5851330687     3.2611875828     0.6178281729
Bq        -1.4403735383     3.2120527319    -0.3704179729
Bq        -1.5127533035     3.2366201574     0.1237051000
Bq        -1.5265171226     3.3414128578     0.2176681098
Bq        -1.4975652165     3.3315858877     0.0200188807
Bq        -1.5409930756     3.3463263429     0.3164927244
Bq        -1.4830892635     3.3266724026    -0.0788057339
Bq        -1.5554690287     3.3512398280     0.4153173390
Bq        -1.4686133104     3.3217589175    -0.1776303485
Bq        -1.5699449817     3.3561533131     0.5141419536
Bq        -1.4541373574     3.3168454324    -0.2764549631
Bq        -1.5844209348     3.3610667981     0.6129665682
Bq        -1.4396614043     3.3119319473    -0.3752795777
Bq        -1.5120411696     3.3364993727     0.1188434952
Bq        -1.5258049887     3.4412920732     0.2128065051
Bq        -1.4968530826     3.4314651030     0.0151572759
Bq        -1.5402809417     3.4462055583     0.3116311196
Bq        -1.4823771295     3.4265516179    -0.0836673387
Bq        -1.5547568947     3.4511190434     0.4104557342
Bq        -1.4679011765     3.4216381329    -0.1824919533
Bq        -1.5692328478     3.4560325284     0.5092803488
Bq        -1.4534252234     3.4167246478    -0.2813165679
Bq        -1.5837088008     3.4609460135     0.6081049634
Bq        -1.4389492704     3.4118111627    -0.3801411824
Bq        -1.5113290356     3.4363785881     0.1139818905
Bq        -1.5250928547     3.5411712886     0.2079449003
Bq        -1.4961409486     3.5313443184     0.0102956711
Bq        -1.5395688078     3.5460847737     0.3067695149
Bq        -1.4816649956     3.5264308333    -0.0885289435
Bq        -1.5540447608     3.5509982587     0.4055941295
Bq        -1.4671890425     3.5215173482    -0.1873535580
Bq        -1.5685207138     3.5559117438     0.5044187440
Bq        -1.4527130895     3.5166038632    -0.2861781726
Bq        -1.5829966669     3.5608252289     0.6032433586
Bq        -1.4382371364     3.5116903781    -0.3850027872
Bq        -1.5106169017     3.5362578035     0.1091202857
Bq        -1.5243807208     3.6410505039     0.2030832955
Bq        -1.4954288147     3.6312235338     0.0054340664
Bq        -1.5388566738     3.6459639890     0.3019079101
Bq        -1.4809528616     3.6263100487    -0.0933905482
Bq        -1.5533326269     3.6508774741     0.4007325247
Bq        -1.4664769086     3.6213965636    -0.1922151628
Bq        -1.5678085799     3.6557909592     0.4995571393
Bq        -1.4520009555     3.6164830785    -0.2910397774
Bq        -1.5822845329     3.6607044443     0.5983817539
Bq        -1.4375250025     3.6115695935    -0.3898643920
Bq        -1.5099047677     3.6361370189     0.1042586809
Bq        -1.5236685868     3.7409297193     0.1982216908
Bq        -1.4947166807     3.7311027492     0.0005724616
Bq        -1.5381445399     3.7458432044     0.2970463053
Bq        -1.4802407277     3.7261892641    -0.0982521530
Bq        -1.5526204929     3.7507566895     0.3958709199
Bq        -1.4657647747     3.7212757790    -0.1970767676
Bq        -1.5670964460     3.7556701746     0.4946955345
Bq        -1.4512888216     3.7163622939    -0.2959013822
Bq        -1.5815723990     3.7605836597     0.5935201491
Bq        -1.4368128686     3.7114488088    -0.3947259967
Bq        -1.5091926338     3.7360162342     0.0993970762
Bq        -1.5229564529     3.8408089347     0.1933600860
Bq        -1.4940045468     3.8309819645    -0.0042891432
Bq        -1.5374324059     3.8457224198     0.2921847006
Bq        -1.4795285938     3.8260684795    -0.1031137578
Bq        -1.5519083590     3.8506359049     0.3910093152
Bq        -1.4650526407     3.8211549944    -0.2019383723
Bq        -1.5663843120     3.8555493900     0.4898339297
Bq        -1.4505766877     3.8162415093    -0.3007629869
Bq        -1.5808602651     3.8604628750     0.5886585443
Bq        -1.4361007346     3.8113280242    -0.3995876015
Bq        -1.5084804998     3.8358954496     0.0945354714
Bq        -1.5222443189     3.9406881501     0.1884984812
Bq        -1.4932924129     3.9308611799    -0.0091507479
Bq        -1.5367202720     3.9456016352     0.2873230958
Bq        -1.4788164598     3.9259476948    -0.1079753625
Bq        -1.5511962250     3.9505151202     0.3861477104
Bq        -1.4643405068     3.9210342098    -0.2067999771
Bq        -1.5656721781     3.9554286053     0.4849723250
Bq        -1.4498645537     3.9161207247    -0.3056245917
Bq        -1.5801481311     3.9603420904     0.5837969396
Bq        -1.4353886007     3.9112072396    -0.4044492063
Bq        -1.5077683659     3.9357746650     0.0896738666
Bq        -1.5215321850     4.0405673655     0.1836368765
Bq        -1.4925802789     4.0307403953    -0.0140123527
Bq        -1.5360081380     4.0454808505     0.2824614910
Bq        -1.4781043259     4.0258269102    -0.1128369673
Bq        -1.5504840911     4.0503943356     0.3812861056
Bq        -1.4636283728     4.0209134251    -0.2116615819
Bq        -1.5649600441     4.0553078207     0.4801107202
Bq        -1.4491524198     4.0159999400    -0.3104861965
Bq        -1.5794359972     4.0602213058     0.5789353348
Bq        -1.4346764667     4.0110864550    -0.4093108110
Bq        -1.5070562320     4.0356538804     0.0848122619
Bq        -1.5208200511     4.1404465808     0.1787752717
Bq        -1.4918681450     4.1306196107    -0.0188739575
Bq        -1.5352960041     4.1453600659     0.2775998863
Bq        -1.4773921919     4.1257061256    -0.1176985721
Bq        -1.5497719572     4.1502735510     0.3764245009
Bq        -1.4629162389     4.1207926405    -0.2165231866
Bq        -1.5642479102     4.1551870361     0.4752491155
Bq        -1.4484402858     4.1158791554    -0.3153478012
Bq        -1.5787238632     4.1601005212     0.5740737300
Bq        -1.4339643328     4.1109656703    -0.4141724158
Bq        -1.5063440980     4.1355330958     0.0799506571
Bq        -1.5201079171     4.2403257962     0.1739136669
Bq        -1.4911560110     4.2304988260    -0.0237355622
Bq        -1.5345838702     4.2452392813     0.2727382815
Bq        -1.4766800580     4.2255853410    -0.1225601768
Bq        -1.5490598232     4.2501527664     0.3715628961
Bq        -1.4622041049     4.2206718559    -0.2213847914
Bq        -1.5635357763     4.2550662515     0.4703875107
Bq        -1.4477281519     4.2157583708    -0.3202094060
Bq        -1.5780117293     4.2599797365     0.5692121253
Bq        -1.4332521989     4.2108448857    -0.4190340206
Bq        -1.5056319641     4.2354123111     0.0750890523
Bq        -1.5193957832     4.3402050116     0.1690520622
Bq        -1.4904438771     4.3303780414    -0.0285971670
Bq        -1.5338717362     4.3451184967     0.2678766767
Bq        -1.4759679240     4.3254645563    -0.1274217816
Bq        -1.5483476893     4.3500319818     0.3667012913
Bq        -1.4614919710     4.3205510713    -0.2262463962
Bq        -1.5628236423     4.3549454668     0.4655259059
Bq        -1.4470160180     4.3156375862    -0.3250710108
Bq        -1.5772995954     4.3598589519     0.5643505205
Bq        -1.4325400649     4.3107241011    -0.4238956253
Bq        -1.5049198301     4.3352915265     0.0702274476
Bq        -1.4560583564    -0.6537557573     0.4266257594
Bq        -1.4271064503    -0.6635827274     0.2289765302
Bq        -1.4705343094    -0.6488422722     0.5254503740
Bq        -1.4126304973    -0.6684962125     0.1301519156
Bq        -1.4850102625    -0.6439287871     0.6242749886
Bq        -1.3981545442    -0.6734096976     0.0313273011
Bq        -1.4994862155    -0.6390153020     0.7230996032
Bq        -1.3836785912    -0.6783231827    -0.0674973135
Bq        -1.5139621686    -0.6341018169     0.8219242177
Bq        -1.3692026381    -0.6832366678    -0.1663219281
Bq        -1.4415824033    -0.6586692423     0.3278011448
Bq        -1.4553462224    -0.5538765419     0.4217641546
Bq        -1.4263943164    -0.5637035121     0.2241149255
Bq        -1.4698221755    -0.5489630568     0.5205887692
Bq        -1.4119183633    -0.5686169971     0.1252903109
Bq        -1.4842981285    -0.5440495717     0.6194133838
Bq        -1.3974424103    -0.5735304822     0.0264656963
Bq        -1.4987740816    -0.5391360866     0.7182379984
Bq        -1.3829664572    -0.5784439673    -0.0723589183
Bq        -1.5132500346    -0.5342226016     0.8170626130
Bq        -1.3684905042    -0.5833574524    -0.1711835329
Bq        -1.4408702694    -0.5587900270     0.3229395400
Bq        -1.4546340885    -0.4539973265     0.4169025499
Bq        -1.4256821824    -0.4638242967     0.2192533207
Bq        -1.4691100416    -0.4490838414     0.5157271645
Bq        -1.4112062294    -0.4687377818     0.1204287061
Bq        -1.4835859946    -0.4441703563     0.6145517790
Bq        -1.3967302763    -0.4736512668     0.0216040915
Bq        -1.4980619476    -0.4392568713     0.7133763936
Bq        -1.3822543233    -0.4785647519    -0.0772205231
Bq        -1.5125379007    -0.4343433862     0.8122010082
Bq        -1.3677783702    -0.4834782370    -0.1760451376
Bq        -1.4401581355    -0.4589108116     0.3180779353
Bq        -1.4539219546    -0.3541181111     0.4120409451
Bq        -1.4249700485    -0.3639450813     0.2143917159
Bq        -1.4683979076    -0.3492046261     0.5108655597
Bq        -1.4104940954    -0.3688585664     0.1155671013
Bq        -1.4828738607    -0.3442911410     0.6096901743

1
2
3
4
5
6
7
8
9
10
11
12
13
14
15
16
17
18
19
20
21
22
23
24
25
26
27
28
29
30
31
32
33
34
35
36
37
38
39
40
41
42
43
44
45
46
47
48
49
50
51
52
53
54
55
56
57
58
59
60
61
62
63
64
65
66
67
68
69
70
71
72
73
74
75
76
77
78
79
80
81
82
83
84
85
86
87
88
89
90
91
92
93
94
95
96
97
98
99
100
101
102
103
104
105
106
107
108
109
110
111
112
113
114
115
116
117
118
119
120
121
122
123
124
125
126
127
128
129
130
131
132
133
134
135
136
137
138
139
140
141
142
143
144
145
146
147
148
149
150
151
152
153
154
155
156
157
158
159
160
161
162
163
164
165
166
167
168
169
170
171
172
173
174
175
176
177
178
179
180
181
182
183
184
185
186
187
188
189
190
191
192
193
194
195
196
197
198
199
200
201
202
203
204
205
206
207
208
209
210
211
212
213
214
215
216
217
218
219
220
221
222
223
224
225
226
227
228
229
230
231
232
233
234
235
236

