%nproc=8
%mem=1000MB
# rb3lyp/6-311+g** NMR geom=connectivity

Title

0 1
C    -4.0500558   -0.5771862    0.8136712
H    -5.0263804   -1.0082727    1.0024760
C    -3.9381552    0.6617804    0.2400876
H    -4.8252424    1.2338890   -0.0111295
C    -2.6768410    1.2433246    0.0057578
C    -1.4974121    0.5051527    0.2848253
C    -1.6508332   -0.7338728    0.9404026
H    -0.7713646   -1.2730967    1.2633753
C    -2.8898548   -1.2624035    1.1994307
H    -2.9683706   -2.2124563    1.7152676
C    -2.5773185    2.5963696   -0.4192930
H    -3.4870728    3.1412239   -0.6474055
C    -1.3741895    3.2147896   -0.4364030
H    -1.2997315    4.2742019   -0.6578144
C    -0.1719488    2.4994090   -0.1734588
C    -0.2043917    1.1018437    0.0192689
C     1.0513491    3.2042560   -0.0676222
H     1.0427344    4.2819499   -0.1896997
C     2.1942091    2.5487446    0.2579577
H     3.1168527    3.0912848    0.4334727
C     2.2216473    1.1336562    0.2934990
C     1.0486931    0.3945528    0.0302412
C     3.4483363    0.4614633    0.5573939
H     4.3095794    1.0606054    0.8334846
C     3.5427346   -0.8855926    0.4749463
H     4.4731467   -1.3939704    0.7038822
C     2.4490052   -1.6474447   -0.0196319
C     1.2150704   -1.0057258   -0.3013573
C     0.2531113   -1.7434440   -1.0216591
H    -0.6541356   -1.2535051   -1.3462847
C     0.4494193   -3.0628597   -1.3413779
H    -0.3083162   -3.5944309   -1.9054060
C     1.6251726   -3.7207967   -0.9552541
H     1.7670048   -4.7687404   -1.1927019
C     2.6109872   -3.0144177   -0.3183050
H     3.5525612   -3.4902813   -0.0646367
Bq         0.6091954195     1.6532931666     0.8168207161
Bq         0.6960511377     1.6238122561     0.2238730286
Bq         0.5947194664     1.6582066517     0.9156453307
Bq         0.7105270908     1.6188987710     0.1250484140
Bq         0.5802435134     1.6631201367     1.0144699453
Bq         0.7250030438     1.6139852859     0.0262237995
Bq         0.6526232786     1.6385527113     0.5203468724
Bq         0.6388594595     1.7433454118     0.6143098822
Bq         0.6678113656     1.7335184416     0.4166606530
Bq         0.6243835065     1.7482588969     0.7131344968
Bq         0.6822873186     1.7286049565     0.3178360384
Bq         0.6099075534     1.7531723819     0.8119591114
Bq         0.6967632717     1.7236914715     0.2190114239
Bq         0.5954316004     1.7580858670     0.9107837260
Bq         0.7112392247     1.7187779864     0.1201868093
Bq         0.5809556473     1.7629993521     1.0096083405
Bq         0.7257151778     1.7138645013     0.0213621947
Bq         0.6533354126     1.7384319267     0.5154852676
Bq         0.6395715935     1.8432246272     0.6094482774
Bq         0.6685234995     1.8333976570     0.4117990483
Bq         0.6250956404     1.8481381122     0.7082728920
Bq         0.6829994526     1.8284841719     0.3129744337
Bq         0.6106196874     1.8530515973     0.8070975066
Bq         0.6974754056     1.8235706868     0.2141498191
Bq         0.5961437343     1.8579650824     0.9059221212
Bq         0.7119513587     1.8186572017     0.1153252045
Bq         0.5816677813     1.8628785675     1.0047467358
Bq         0.7264273117     1.8137437167     0.0165005899
Bq         0.6540475465     1.8383111421     0.5106236628
Bq         0.6402837274     1.9431038425     0.6045866727
Bq         0.6692356335     1.9332768724     0.4069374435
Bq         0.6258077744     1.9480173276     0.7034112873
Bq         0.6837115865     1.9283633873     0.3081128289
Bq         0.6113318213     1.9529308127     0.8022359018
Bq         0.6981875396     1.9234499022     0.2092882143
Bq         0.5968558683     1.9578442978     0.9010605164
Bq         0.7126634926     1.9185364171     0.1104635997
Bq         0.5823799152     1.9627577829     0.9998851310
Bq         0.7271394457     1.9136229320     0.0116389852
Bq         0.6547596804     1.9381903575     0.5057620581
Bq         0.6409958613     2.0429830579     0.5997250679
Bq         0.6699477674     2.0331560878     0.4020758387
Bq         0.6265199083     2.0478965430     0.6985496825
Bq         0.6844237205     2.0282426027     0.3032512241
Bq         0.6120439552     2.0528100281     0.7973742971
Bq         0.6988996735     2.0233291176     0.2044266096
Bq         0.5975680022     2.0577235132     0.8961989117
Bq         0.7133756266     2.0184156325     0.1056019950
Bq         0.5830920492     2.0626369982     0.9950235262
Bq         0.7278515796     2.0135021474     0.0067773804
Bq         0.6554718144     2.0380695728     0.5009004533
Bq         0.6417079953     2.1428622733     0.5948634631
Bq         0.6706599014     2.1330353031     0.3972142340
Bq         0.6272320422     2.1477757584     0.6936880777
Bq         0.6851358544     2.1281218180     0.2983896194
Bq         0.6127560892     2.1526892435     0.7925126923
Bq         0.6996118075     2.1232083330     0.1995650048
Bq         0.5982801361     2.1576027285     0.8913373069
Bq         0.7140877605     2.1182948479     0.1007403902
Bq         0.5838041831     2.1625162136     0.9901619215
Bq         0.7285637135     2.1133813628     0.0019157756
Bq         0.6561839483     2.1379487882     0.4960388485
Bq         0.6424201292     2.2427414887     0.5900018584
Bq         0.6713720353     2.2329145185     0.3923526292
Bq         0.6279441762     2.2476549738     0.6888264730
Bq         0.6858479884     2.2280010334     0.2935280146
Bq         0.6134682231     2.2525684588     0.7876510875
Bq         0.7003239414     2.2230875483     0.1947034000
Bq         0.5989922701     2.2574819439     0.8864757021
Bq         0.7147998944     2.2181740633     0.0958787854
Bq         0.5845163170     2.2623954290     0.9853003167
Bq         0.7292758475     2.2132605782    -0.0029458291
Bq         0.6568960823     2.2378280036     0.4911772438
Bq         0.6431322632     2.3426207040     0.5851402536
Bq         0.6720841692     2.3327937339     0.3874910244
Bq         0.6286563101     2.3475341891     0.6839648682
Bq         0.6865601223     2.3278802488     0.2886664098
Bq         0.6141803571     2.3524476742     0.7827894828
Bq         0.7010360753     2.3229667637     0.1898417953
Bq         0.5997044040     2.3573611593     0.8816140974
Bq         0.7155120284     2.3180532786     0.0910171807
Bq         0.5852284510     2.3622746444     0.9804387119
Bq         0.7299879814     2.3131397936    -0.0078074339
Bq         0.6576082162     2.3377072190     0.4863156390
Bq         0.6438443971     2.4424999194     0.5802786488
Bq         0.6727963032     2.4326729493     0.3826294197
Bq         0.6293684441     2.4474134045     0.6791032634
Bq         0.6872722562     2.4277594642     0.2838048051
Bq         0.6148924910     2.4523268896     0.7779278780
Bq         0.7017482093     2.4228459791     0.1849801905
Bq         0.6004165380     2.4572403747     0.8767524926
Bq         0.7162241623     2.4179324940     0.0861555759
Bq         0.5859405849     2.4621538598     0.9755771072
Bq         0.7307001154     2.4130190089    -0.0126690387
Bq         0.6583203501     2.4375864343     0.4814540342
Bq         0.6445565310     2.5423791348     0.5754170441
Bq         0.6735084371     2.5325521646     0.3777678149
Bq         0.6300805780     2.5472926199     0.6742416587
Bq         0.6879843902     2.5276386796     0.2789432003
Bq         0.6156046250     2.5522061050     0.7730662732
Bq         0.7024603432     2.5227251945     0.1801185857
Bq         0.6011286719     2.5571195900     0.8718908878
Bq         0.7169362963     2.5178117094     0.0812939711
Bq         0.5866527189     2.5620330751     0.9707155024
Bq         0.7314122493     2.5128982243    -0.0175306434
Bq         0.6590324841     2.5374656497     0.4765924295
Bq         0.6452686650     2.6422583502     0.5705554393
Bq         0.6742205711     2.6324313800     0.3729062101
Bq         0.6307927119     2.6471718353     0.6693800539
Bq         0.6886965241     2.6275178949     0.2740815955
Bq         0.6163167589     2.6520853203     0.7682046685
Bq         0.7031724772     2.6226044098     0.1752569810
Bq         0.6018408059     2.6569988054     0.8670292831
Bq         0.7176484302     2.6176909248     0.0764323664
Bq         0.5873648528     2.6619122905     0.9658538976
Bq         0.7321243833     2.6127774397    -0.0223922482
Bq         0.6597446180     2.6373448651     0.4717308247
Bq         0.6459807989     2.7421375656     0.5656938345
Bq         0.6749327050     2.7323105954     0.3680446054
Bq         0.6315048459     2.7470510506     0.6645184491
Bq         0.6894086581     2.7273971103     0.2692199908
Bq         0.6170288928     2.7519645357     0.7633430637
Bq         0.7038846111     2.7224836252     0.1703953762
Bq         0.6025529398     2.7568780208     0.8621676783
Bq         0.7183605641     2.7175701401     0.0715707616
Bq         0.5880769868     2.7617915059     0.9609922929
Bq         0.7328365172     2.7126566551    -0.0272538530
Bq         0.6604567520     2.7372240805     0.4668692199
Bq         0.6466929329     2.8420167809     0.5608322298
Bq         0.6756448390     2.8321898108     0.3631830006
Bq         0.6322169798     2.8469302660     0.6596568444
Bq         0.6901207920     2.8272763257     0.2643583860
Bq         0.6177410268     2.8518437511     0.7584814589
Bq         0.7045967450     2.8223628406     0.1655337714
Bq         0.6032650737     2.8567572362     0.8573060735
Bq         0.7190726981     2.8174493555     0.0667091568
Bq         0.5887891207     2.8616707213     0.9561306881
Bq         0.7335486511     2.8125358704    -0.0321154577
Bq         0.6611688859     2.8371032959     0.4620076152
Bq         0.6474050668     2.9418959963     0.5559706250
Bq         0.6763569729     2.9320690261     0.3583213958
Bq         0.6329291138     2.9468094814     0.6547952396
Bq         0.6908329259     2.9271555411     0.2594967812
Bq         0.6184531607     2.9517229665     0.7536198542
Bq         0.7053088790     2.9222420560     0.1606721667
Bq         0.6039772077     2.9566364516     0.8524444688
Bq         0.7197848320     2.9173285709     0.0618475521
Bq         0.5895012546     2.9615499366     0.9512690833
Bq         0.7342607851     2.9124150858    -0.0369770625
Bq         0.6618810199     2.9369825112     0.4571460104
Bq         0.6481172008     3.0417752117     0.5511090202
Bq         0.6770691068     3.0319482415     0.3534597911
Bq         0.6336412477     3.0466886968     0.6499336348
Bq         0.6915450599     3.0270347564     0.2546351765
Bq         0.6191652947     3.0516021819     0.7487582494
Bq         0.7060210129     3.0221212714     0.1558105619
Bq         0.6046893416     3.0565156669     0.8475828640
Bq         0.7204969660     3.0172077863     0.0569859473
Bq         0.5902133886     3.0614291520     0.9464074786
Bq         0.7349729190     3.0122943012    -0.0418386673
Bq         0.6625931538     3.0368617266     0.4522844057
Bq         0.6488293347     3.1416544271     0.5462474155
Bq         0.6777812408     3.1318274569     0.3485981863
Bq         0.6343533817     3.1465679121     0.6450720301
Bq         0.6922571938     3.1269139718     0.2497735717
Bq         0.6198774286     3.1514813972     0.7438966446
Bq         0.7067331469     3.1220004867     0.1509489571
Bq         0.6054014756     3.1563948823     0.8427212592
Bq         0.7212090999     3.1170870017     0.0521243425
Bq         0.5909255225     3.1613083674     0.9415458738
Bq         0.7356850530     3.1121735166    -0.0467002720
Bq         0.6633052877     3.1367409420     0.4474228009
Bq         0.6495414686     3.2415336424     0.5413858107
Bq         0.6784933747     3.2317066723     0.3437365815
Bq         0.6350655156     3.2464471275     0.6402104253
Bq         0.6929693278     3.2267931872     0.2449119669
Bq         0.6205895625     3.2513606126     0.7390350399
Bq         0.7074452808     3.2218797021     0.1460873524
Bq         0.6061136095     3.2562740977     0.8378596545
Bq         0.7219212339     3.2169662170     0.0472627378
Bq         0.5916376565     3.2611875828     0.9366842690
Bq         0.7363971869     3.2120527319    -0.0515618768
Bq         0.6640174217     3.2366201574     0.4425611961
Bq         0.6502536026     3.3414128578     0.5365242059
Bq         0.6792055087     3.3315858877     0.3388749768
Bq         0.6357776495     3.3463263429     0.6353488205
Bq         0.6936814617     3.3266724026     0.2400503622
Bq         0.6213016965     3.3512398280     0.7341734351
Bq         0.7081574148     3.3217589175     0.1412257476
Bq         0.6068257434     3.3561533131     0.8329980497
Bq         0.7226333678     3.3168454324     0.0424011330
Bq         0.5923497904     3.3610667981     0.9318226643
Bq         0.7371093208     3.3119319473    -0.0564234816
Bq         0.6647295556     3.3364993727     0.4376995914
Bq         0.6509657365     3.4412920732     0.5316626012
Bq         0.6799176426     3.4314651030     0.3340133720
Bq         0.6364897835     3.4462055583     0.6304872158
Bq         0.6943935957     3.4265516179     0.2351887574
Bq         0.6220138304     3.4511190434     0.7293118303
Bq         0.7088695487     3.4216381329     0.1363641428

1
2
3
4
5
6
7
8
9
10
11
12
13
14
15
16
17
18
19
20
21
22
23
24
25
26
27
28
29
30
31
32
33
34
35
36
37
38
39
40
41
42
43
44
45
46
47
48
49
50
51
52
53
54
55
56
57
58
59
60
61
62
63
64
65
66
67
68
69
70
71
72
73
74
75
76
77
78
79
80
81
82
83
84
85
86
87
88
89
90
91
92
93
94
95
96
97
98
99
100
101
102
103
104
105
106
107
108
109
110
111
112
113
114
115
116
117
118
119
120
121
122
123
124
125
126
127
128
129
130
131
132
133
134
135
136
137
138
139
140
141
142
143
144
145
146
147
148
149
150
151
152
153
154
155
156
157
158
159
160
161
162
163
164
165
166
167
168
169
170
171
172
173
174
175
176
177
178
179
180
181
182
183
184
185
186
187
188
189
190
191
192
193
194
195
196
197
198
199
200
201
202
203
204
205
206
207
208
209
210
211
212
213
214
215
216
217
218
219
220
221
222
223
224
225
226
227
228
229
230
231
232
233
234
235
236

