%nproc=8
%mem=1000MB
# rb3lyp/6-311+g** NMR geom=connectivity

Title

0 1
C    -4.0500558   -0.5771862    0.8136712
H    -5.0263804   -1.0082727    1.0024760
C    -3.9381552    0.6617804    0.2400876
H    -4.8252424    1.2338890   -0.0111295
C    -2.6768410    1.2433246    0.0057578
C    -1.4974121    0.5051527    0.2848253
C    -1.6508332   -0.7338728    0.9404026
H    -0.7713646   -1.2730967    1.2633753
C    -2.8898548   -1.2624035    1.1994307
H    -2.9683706   -2.2124563    1.7152676
C    -2.5773185    2.5963696   -0.4192930
H    -3.4870728    3.1412239   -0.6474055
C    -1.3741895    3.2147896   -0.4364030
H    -1.2997315    4.2742019   -0.6578144
C    -0.1719488    2.4994090   -0.1734588
C    -0.2043917    1.1018437    0.0192689
C     1.0513491    3.2042560   -0.0676222
H     1.0427344    4.2819499   -0.1896997
C     2.1942091    2.5487446    0.2579577
H     3.1168527    3.0912848    0.4334727
C     2.2216473    1.1336562    0.2934990
C     1.0486931    0.3945528    0.0302412
C     3.4483363    0.4614633    0.5573939
H     4.3095794    1.0606054    0.8334846
C     3.5427346   -0.8855926    0.4749463
H     4.4731467   -1.3939704    0.7038822
C     2.4490052   -1.6474447   -0.0196319
C     1.2150704   -1.0057258   -0.3013573
C     0.2531113   -1.7434440   -1.0216591
H    -0.6541356   -1.2535051   -1.3462847
C     0.4494193   -3.0628597   -1.3413779
H    -0.3083162   -3.5944309   -1.9054060
C     1.6251726   -3.7207967   -0.9552541
H     1.7670048   -4.7687404   -1.1927019
C     2.6109872   -3.0144177   -0.3183050
H     3.5525612   -3.4902813   -0.0646367
Bq         1.1356376803    -2.9441393296    -0.9704106033
Bq         0.9363288614    -3.0772175851    -0.5315869797
Bq         0.8854606242    -3.0074402535    -0.4195890045
Bq         0.9651841518    -2.9542089513    -0.5951184540
Bq         0.8455988604    -3.0340559046    -0.3318242798
Bq         1.0050459156    -2.9275933002    -0.6828831787
Bq         0.8057370966    -3.0606715558    -0.2440595551
Bq         1.0449076794    -2.9009776491    -0.7706479034
Bq         0.7658753329    -3.0872872069    -0.1562948304
Bq         1.0847694432    -2.8743619980    -0.8584126281
Bq         0.7260135691    -3.1139028580    -0.0685301057
Bq         1.1246312069    -2.8477463469    -0.9461773528
Bq         0.9253223880    -2.9808246024    -0.5073537292
Bq         0.8744541508    -2.9110472708    -0.3953557541
Bq         0.9541776784    -2.8578159686    -0.5708852035
Bq         0.8345923871    -2.9376629219    -0.3075910294
Bq         0.9940394422    -2.8312003175    -0.6586499282
Bq         0.7947306233    -2.9642785730    -0.2198263046
Bq         1.0339012060    -2.8045846664    -0.7464146529
Bq         0.7548688595    -2.9908942241    -0.1320615799
Bq         1.0737629698    -2.7779690153    -0.8341793776
Bq         0.7150070957    -3.0175098753    -0.0442968552
Bq         1.1136247336    -2.7513533642    -0.9219441023
Bq         0.9143159146    -2.8844316197    -0.4831204788
Bq         0.8634476775    -2.8146542881    -0.3711225036
Bq         0.9431712050    -2.7614229859    -0.5466519530
Bq         0.8235859137    -2.8412699392    -0.2833577789
Bq         0.9830329688    -2.7348073348    -0.6344166777
Bq         0.7837241499    -2.8678855903    -0.1955930542
Bq         1.0228947326    -2.7081916837    -0.7221814025
Bq         0.7438623861    -2.8945012414    -0.1078283295
Bq         1.0627564964    -2.6815760326    -0.8099461272
Bq         0.7040006223    -2.9211168925    -0.0200636048
Bq         1.1026182602    -2.6549603815    -0.8977108519
Bq         0.9033094413    -2.7880386370    -0.4588872283
Bq         0.8524412041    -2.7182613054    -0.3468892532
Bq         0.9321647317    -2.6650300032    -0.5224187026
Bq         0.8125794403    -2.7448769565    -0.2591245284
Bq         0.9720264955    -2.6384143521    -0.6101834273
Bq         0.7727176765    -2.7714926076    -0.1713598037
Bq         1.0118882592    -2.6117987010    -0.6979481520
Bq         0.7328559127    -2.7981082587    -0.0835950790
Bq         1.0517500230    -2.5851830499    -0.7857128767
Bq         0.6929941489    -2.8247239098     0.0041696457
Bq         1.0916117868    -2.5585673988    -0.8734776014
Bq         0.8923029679    -2.6916456543    -0.4346539779
Bq         0.8414347307    -2.6218683227    -0.3226560027
Bq         0.9211582583    -2.5686370205    -0.4981854521
Bq         0.8015729669    -2.6484839738    -0.2348912780
Bq         0.9610200221    -2.5420213694    -0.5859501768
Bq         0.7617112032    -2.6750996249    -0.1471265533
Bq         1.0008817859    -2.5154057183    -0.6737149015
Bq         0.7218494394    -2.7017152760    -0.0593618286
Bq         1.0407435497    -2.4887900672    -0.7614796263
Bq         0.6819876756    -2.7283309271     0.0284028962
Bq         1.0806053135    -2.4621744160    -0.8492443510
Bq         0.8812964945    -2.5952526716    -0.4104207274
Bq         0.8304282574    -2.5254753400    -0.2984227522
Bq         0.9101517849    -2.4722440378    -0.4739522017
Bq         0.7905664936    -2.5520909911    -0.2106580275
Bq         0.9500135487    -2.4456283867    -0.5617169264
Bq         0.7507047298    -2.5787066422    -0.1228933028
Bq         0.9898753125    -2.4190127355    -0.6494816511
Bq         0.7108429660    -2.6053222933    -0.0351285781
Bq         1.0297370763    -2.3923970844    -0.7372463758
Bq         0.6709812022    -2.6319379444     0.0526361466
Bq         1.0695988401    -2.3657814333    -0.8250111005
Bq         0.8702900211    -2.4988596889    -0.3861874769
Bq         0.8194217840    -2.4290823573    -0.2741895018
Bq         0.8991453116    -2.3758510550    -0.4497189512
Bq         0.7795600202    -2.4556980084    -0.1864247771
Bq         0.9390070753    -2.3492354039    -0.5374836759
Bq         0.7396982564    -2.4823136595    -0.0986600524
Bq         0.9788688391    -2.3226197528    -0.6252484006
Bq         0.6998364926    -2.5089293106    -0.0108953276
Bq         1.0187306029    -2.2960041017    -0.7130131253
Bq         0.6599747288    -2.5355449617     0.0768693971
Bq         1.0585923667    -2.2693884506    -0.8007778501
Bq         0.8592835478    -2.4024667062    -0.3619542265
Bq         0.8084153106    -2.3326893746    -0.2499562513
Bq         0.8881388382    -2.2794580723    -0.4254857007
Bq         0.7685535468    -2.3593050257    -0.1621915266
Bq         0.9280006020    -2.2528424212    -0.5132504255
Bq         0.7286917830    -2.3859206768    -0.0744268019
Bq         0.9678623658    -2.2262267701    -0.6010151502
Bq         0.6888300192    -2.4125363279     0.0133379228
Bq         1.0077241295    -2.1996111190    -0.6887798749
Bq         0.6489682555    -2.4391519790     0.1011026475
Bq         1.0475858933    -2.1729954679    -0.7765445996
Bq         0.8482770744    -2.3060737234    -0.3377209760
Bq         0.7974088372    -2.2362963918    -0.2257230009
Bq         0.8771323648    -2.1830650896    -0.4012524503
Bq         0.7575470735    -2.2629120429    -0.1379582762
Bq         0.9169941286    -2.1564494385    -0.4890171750
Bq         0.7176853097    -2.2895276941    -0.0501935514
Bq         0.9568558924    -2.1298337874    -0.5767818997
Bq         0.6778235459    -2.3161433452     0.0375711733
Bq         0.9967176562    -2.1032181363    -0.6645466244
Bq         0.6379617821    -2.3427589963     0.1253358980
Bq         1.0365794200    -2.0766024852    -0.7523113491
Bq         0.8372706010    -2.2096807407    -0.3134877256
Bq         0.7864023639    -2.1399034091    -0.2014897504
Bq         0.8661258914    -2.0866721069    -0.3770191998
Bq         0.7465406001    -2.1665190602    -0.1137250257
Bq         0.9059876552    -2.0600564558    -0.4647839245
Bq         0.7066788363    -2.1931347113    -0.0259603010
Bq         0.9458494190    -2.0334408047    -0.5525486493
Bq         0.6668170725    -2.2197503624     0.0618044237
Bq         0.9857111828    -2.0068251536    -0.6403133740
Bq         0.6269553087    -2.2463660136     0.1495691484
Bq         1.0255729466    -1.9802095025    -0.7280780987
Bq         0.8262641277    -2.1132877580    -0.2892544751
Bq         0.7753958905    -2.0435104264    -0.1772564999
Bq         0.8551194181    -1.9902791242    -0.3527859494
Bq         0.7355341267    -2.0701260775    -0.0894917752
Bq         0.8949811819    -1.9636634731    -0.4405506741
Bq         0.6956723629    -2.0967417286    -0.0017270505
Bq         0.9348429456    -1.9370478220    -0.5283153988
Bq         0.6558105991    -2.1233573797     0.0860376742
Bq         0.9747047094    -1.9104321709    -0.6160801235
Bq         0.6159488353    -2.1499730308     0.1738023989
Bq         1.0145664732    -1.8838165198    -0.7038448482
Bq         0.8152576543    -2.0168947753    -0.2650212247
Bq         0.7643894171    -1.9471174437    -0.1530232495
Bq         0.8441129447    -1.8938861415    -0.3285526989
Bq         0.7245276533    -1.9737330948    -0.0652585248
Bq         0.8839747085    -1.8672704904    -0.4163174236
Bq         0.6846658895    -2.0003487459     0.0225061999
Bq         0.9238364723    -1.8406548393    -0.5040821483
Bq         0.6448041258    -2.0269643970     0.1102709246
Bq         0.9636982361    -1.8140391882    -0.5918468731
Bq         0.6049423620    -2.0535800481     0.1980356494
Bq         1.0035599998    -1.7874235371    -0.6796115978
Bq         0.8042511809    -1.9205017926    -0.2407879742
Bq         0.7533829437    -1.8507244610    -0.1287899990
Bq         0.8331064713    -1.7974931588    -0.3043194485
Bq         0.7135211800    -1.8773401121    -0.0410252743
Bq         0.8729682351    -1.7708775077    -0.3920841732
Bq         0.6736594162    -1.9039557632     0.0467394504
Bq         0.9128299989    -1.7442618566    -0.4798488979
Bq         0.6337976524    -1.9305714143     0.1345041751
Bq         0.9526917627    -1.7176462055    -0.5676136226
Bq         0.5939358886    -1.9571870654     0.2222688998
Bq         0.9925535265    -1.6910305543    -0.6553783473
Bq         0.7932447075    -1.8241088099    -0.2165547237
Bq         0.7423764704    -1.7543314783    -0.1045567486
Bq         0.8220999980    -1.7011001761    -0.2800861980
Bq         0.7025147066    -1.7809471294    -0.0167920239
Bq         0.8619617617    -1.6744845250    -0.3678509227
Bq         0.6626529428    -1.8075627805     0.0709727009
Bq         0.9018235255    -1.6478688739    -0.4556156474
Bq         0.6227911790    -1.8341784316     0.1587374256
Bq         0.9416852893    -1.6212532227    -0.5433803721
Bq         0.5829294152    -1.8607940827     0.2465021503
Bq         0.9815470531    -1.5946375716    -0.6311450968
Bq         0.7822382342    -1.7277158272    -0.1923214733
Bq         0.7313699970    -1.6579384956    -0.0803234981
Bq         0.8110935246    -1.6047071934    -0.2558529475
Bq         0.6915082332    -1.6845541467     0.0074412266
Bq         0.8509552884    -1.5780915422    -0.3436176723
Bq         0.6516464694    -1.7111697978     0.0952059513
Bq         0.8908170522    -1.5514758911    -0.4313823970
Bq         0.6117847056    -1.7377854489     0.1829706760
Bq         0.9306788159    -1.5248602400    -0.5191471217
Bq         0.5719229419    -1.7644011000     0.2707354007
Bq         0.9705405797    -1.4982445889    -0.6069118464
Bq         0.7712317608    -1.6313228445    -0.1680882228
Bq         0.7203635236    -1.5615455129    -0.0560902477
Bq         0.8000870512    -1.5083142106    -0.2316196971
Bq         0.6805017598    -1.5881611640     0.0316744771
Bq         0.8399488150    -1.4816985595    -0.3193844218
Bq         0.6406399961    -1.6147768151     0.1194392018
Bq         0.8798105788    -1.4550829084    -0.4071491465
Bq         0.6007782323    -1.6413924662     0.2072039265
Bq         0.9196723426    -1.4284672573    -0.4949138712
Bq         0.5609164685    -1.6680081173     0.2949686512
Bq         0.9595341064    -1.4018516062    -0.5826785959
Bq         0.7602252874    -1.5349298617    -0.1438549724
Bq         0.7093570503    -1.4651525301    -0.0318569972
Bq         0.7890805778    -1.4119212279    -0.2073864466
Bq         0.6694952865    -1.4917681812     0.0559077275
Bq         0.8289423416    -1.3853055768    -0.2951511713
Bq         0.6296335227    -1.5183838324     0.1436724522
Bq         0.8688041054    -1.3586899257    -0.3829158960
Bq         0.5897717589    -1.5449994835     0.2314371769
Bq         0.9086658692    -1.3320742746    -0.4706806208
Bq         0.5499099951    -1.5716151346     0.3192019017
Bq         0.9485276330    -1.3054586235    -0.5584453455
Bq         0.7492188140    -1.4385368790    -0.1196217219
Bq         0.6983505769    -1.3687595474    -0.0076237467
Bq         0.7780741045    -1.3155282452    -0.1831531962
Bq         0.6584888131    -1.3953751985     0.0801409780
Bq         0.8179358683    -1.2889125941    -0.2709179209
Bq         0.6186270493    -1.4219908496     0.1679057027
Bq         0.8577976320    -1.2622969430    -0.3586826456
Bq         0.5787652855    -1.4486065008     0.2556704274
Bq         0.8976593958    -1.2356812919    -0.4464473703
Bq         0.5389035217    -1.4752221519     0.3434351521
Bq         0.9375211596    -1.2090656408    -0.5342120950
Bq         0.7382123407    -1.3421438963    -0.0953884715

1
2
3
4
5
6
7
8
9
10
11
12
13
14
15
16
17
18
19
20
21
22
23
24
25
26
27
28
29
30
31
32
33
34
35
36
37
38
39
40
41
42
43
44
45
46
47
48
49
50
51
52
53
54
55
56
57
58
59
60
61
62
63
64
65
66
67
68
69
70
71
72
73
74
75
76
77
78
79
80
81
82
83
84
85
86
87
88
89
90
91
92
93
94
95
96
97
98
99
100
101
102
103
104
105
106
107
108
109
110
111
112
113
114
115
116
117
118
119
120
121
122
123
124
125
126
127
128
129
130
131
132
133
134
135
136
137
138
139
140
141
142
143
144
145
146
147
148
149
150
151
152
153
154
155
156
157
158
159
160
161
162
163
164
165
166
167
168
169
170
171
172
173
174
175
176
177
178
179
180
181
182
183
184
185
186
187
188
189
190
191
192
193
194
195
196
197
198
199
200
201
202
203
204
205
206
207
208
209
210
211
212
213
214
215
216
217
218
219
220
221
222
223
224
225
226
227
228
229
230
231
232
233
234
235
236

