%nproc=8
%mem=1000MB
# rb3lyp/6-311+g** NMR geom=connectivity

Title

0 1
C    -4.0500558   -0.5771862    0.8136712
H    -5.0263804   -1.0082727    1.0024760
C    -3.9381552    0.6617804    0.2400876
H    -4.8252424    1.2338890   -0.0111295
C    -2.6768410    1.2433246    0.0057578
C    -1.4974121    0.5051527    0.2848253
C    -1.6508332   -0.7338728    0.9404026
H    -0.7713646   -1.2730967    1.2633753
C    -2.8898548   -1.2624035    1.1994307
H    -2.9683706   -2.2124563    1.7152676
C    -2.5773185    2.5963696   -0.4192930
H    -3.4870728    3.1412239   -0.6474055
C    -1.3741895    3.2147896   -0.4364030
H    -1.2997315    4.2742019   -0.6578144
C    -0.1719488    2.4994090   -0.1734588
C    -0.2043917    1.1018437    0.0192689
C     1.0513491    3.2042560   -0.0676222
H     1.0427344    4.2819499   -0.1896997
C     2.1942091    2.5487446    0.2579577
H     3.1168527    3.0912848    0.4334727
C     2.2216473    1.1336562    0.2934990
C     1.0486931    0.3945528    0.0302412
C     3.4483363    0.4614633    0.5573939
H     4.3095794    1.0606054    0.8334846
C     3.5427346   -0.8855926    0.4749463
H     4.4731467   -1.3939704    0.7038822
C     2.4490052   -1.6474447   -0.0196319
C     1.2150704   -1.0057258   -0.3013573
C     0.2531113   -1.7434440   -1.0216591
H    -0.6541356   -1.2535051   -1.3462847
C     0.4494193   -3.0628597   -1.3413779
H    -0.3083162   -3.5944309   -1.9054060
C     1.6251726   -3.7207967   -0.9552541
H     1.7670048   -4.7687404   -1.1927019
C     2.6109872   -3.0144177   -0.3183050
H     3.5525612   -3.4902813   -0.0646367
Bq         2.3254156432     0.3401229114     0.8299365359
Bq         2.3116518241     0.4449156119     0.9238995457
Bq         2.3406037302     0.4350886417     0.7262503165
Bq         2.2971758710     0.4498290970     1.0227241603
Bq         2.3550796832     0.4301751566     0.6274257019
Bq         2.2826999180     0.4547425820     1.1215487749
Bq         2.3695556363     0.4252616716     0.5286010874
Bq         2.2682239650     0.4596560671     1.2203733895
Bq         2.3840315893     0.4203481865     0.4297764728
Bq         2.2537480119     0.4645695522     1.3191980040
Bq         2.3985075424     0.4154347014     0.3309518582
Bq         2.3261277771     0.4400021268     0.8250749311
Bq         2.3123639580     0.5447948273     0.9190379409
Bq         2.3413158641     0.5349678571     0.7213887118
Bq         2.2978880050     0.5497083123     1.0178625555
Bq         2.3557918172     0.5300543720     0.6225640972
Bq         2.2834120519     0.5546217974     1.1166871701
Bq         2.3702677702     0.5251408869     0.5237394826
Bq         2.2689360989     0.5595352825     1.2155117847
Bq         2.3847437232     0.5202274018     0.4249148680
Bq         2.2544601459     0.5644487676     1.3143363993
Bq         2.3992196763     0.5153139168     0.3260902534
Bq         2.3268399111     0.5398813422     0.8202133263
Bq         2.3130760920     0.6446740426     0.9141763362
Bq         2.3420279981     0.6348470725     0.7165271070
Bq         2.2986001389     0.6495875277     1.0130009508
Bq         2.3565039511     0.6299335874     0.6177024924
Bq         2.2841241859     0.6545010128     1.1118255653
Bq         2.3709799041     0.6250201023     0.5188778778
Bq         2.2696482328     0.6594144979     1.2106501799
Bq         2.3854558572     0.6201066172     0.4200532632
Bq         2.2551722798     0.6643279830     1.3094747945
Bq         2.3999318102     0.6151931321     0.3212286487
Bq         2.3275520450     0.6397605576     0.8153517216
Bq         2.3137882259     0.7445532580     0.9093147314
Bq         2.3427401320     0.7347262878     0.7116655022
Bq         2.2993122729     0.7494667431     1.0081393460
Bq         2.3572160850     0.7298128028     0.6128408876
Bq         2.2848363198     0.7543802282     1.1069639606
Bq         2.3716920381     0.7248993177     0.5140162731
Bq         2.2703603668     0.7592937133     1.2057885752
Bq         2.3861679911     0.7199858326     0.4151916585
Bq         2.2558844137     0.7642071983     1.3046131897
Bq         2.4006439442     0.7150723475     0.3163670439
Bq         2.3282641790     0.7396397729     0.8104901168
Bq         2.3145003599     0.8444324734     0.9044531266
Bq         2.3434522659     0.8346055032     0.7068038975
Bq         2.3000244068     0.8493459585     1.0032777412
Bq         2.3579282190     0.8296920181     0.6079792829
Bq         2.2855484538     0.8542594436     1.1021023558
Bq         2.3724041720     0.8247785331     0.5091546683
Bq         2.2710725007     0.8591729286     1.2009269704
Bq         2.3868801251     0.8198650480     0.4103300537
Bq         2.2565965477     0.8640864137     1.2997515850
Bq         2.4013560781     0.8149515629     0.3115054391
Bq         2.3289763129     0.8395189883     0.8056285121
Bq         2.3152124938     0.9443116888     0.8995915219
Bq         2.3441643999     0.9344847186     0.7019422927
Bq         2.3007365408     0.9492251739     0.9984161365
Bq         2.3586403529     0.9295712335     0.6031176781
Bq         2.2862605877     0.9541386589     1.0972407510
Bq         2.3731163060     0.9246577484     0.5042930635
Bq         2.2717846347     0.9590521440     1.1960653656
Bq         2.3875922590     0.9197442634     0.4054684489
Bq         2.2573086816     0.9639656291     1.2948899802
Bq         2.4020682121     0.9148307783     0.3066438344
Bq         2.3296884468     0.9393982037     0.8007669073
Bq         2.3159246277     1.0441909041     0.8947299171
Bq         2.3448765338     1.0343639340     0.6970806879
Bq         2.3014486747     1.0491043892     0.9935545317
Bq         2.3593524869     1.0294504489     0.5982560733
Bq         2.2869727216     1.0540178743     1.0923791463
Bq         2.3738284399     1.0245369638     0.4994314588
Bq         2.2724967686     1.0589313594     1.1912037609
Bq         2.3883043930     1.0196234787     0.4006068442
Bq         2.2580208156     1.0638448445     1.2900283754
Bq         2.4027803460     1.0147099936     0.3017822296
Bq         2.3304005808     1.0392774191     0.7959053025
Bq         2.3166367617     1.1440701195     0.8898683123
Bq         2.3455886678     1.1342431494     0.6922190832
Bq         2.3021608086     1.1489836046     0.9886929269
Bq         2.3600646208     1.1293296643     0.5933944686
Bq         2.2876848556     1.1538970897     1.0875175415
Bq         2.3745405739     1.1244161792     0.4945698540
Bq         2.2732089025     1.1588105748     1.1863421561
Bq         2.3890165269     1.1195026941     0.3957452394
Bq         2.2587329495     1.1637240599     1.2851667707
Bq         2.4034924799     1.1145892090     0.2969206248
Bq         2.3311127147     1.1391566344     0.7910436978
Bq         2.3173488956     1.2439493349     0.8850067076
Bq         2.3463008017     1.2341223647     0.6873574784
Bq         2.3028729426     1.2488628200     0.9838313222
Bq         2.3607767548     1.2292088797     0.5885328638
Bq         2.2883969895     1.2537763051     1.0826559367
Bq         2.3752527078     1.2242953946     0.4897082492
Bq         2.2739210365     1.2586897901     1.1814805513
Bq         2.3897286608     1.2193819095     0.3908836346
Bq         2.2594450834     1.2636032752     1.2803051659
Bq         2.4042046139     1.2144684244     0.2920590201
Bq         2.3318248487     1.2390358498     0.7861820930
Bq         2.3180610296     1.3438285503     0.8801451028
Bq         2.3470129356     1.3340015801     0.6824958736
Bq         2.3035850765     1.3487420354     0.9789697174
Bq         2.3614888887     1.3290880950     0.5836712590
Bq         2.2891091235     1.3536555204     1.0777943320
Bq         2.3759648417     1.3241746099     0.4848466445
Bq         2.2746331704     1.3585690055     1.1766189466
Bq         2.3904407948     1.3192611249     0.3860220299
Bq         2.2601572174     1.3634824906     1.2754435611
Bq         2.4049167478     1.3143476398     0.2871974153
Bq         2.3325369826     1.3389150652     0.7813204882
Bq         2.3187731635     1.4437077657     0.8752834980
Bq         2.3477250696     1.4338807955     0.6776342689
Bq         2.3042972105     1.4486212507     0.9741081126
Bq         2.3622010226     1.4289673104     0.5788096543
Bq         2.2898212574     1.4535347358     1.0729327272
Bq         2.3766769757     1.4240538253     0.4799850397
Bq         2.2753453044     1.4584482209     1.1717573418
Bq         2.3911529287     1.4191403402     0.3811604251
Bq         2.2608693513     1.4633617060     1.2705819564
Bq         2.4056288818     1.4142268552     0.2823358105
Bq         2.3332491165     1.4387942806     0.7764588835
Bq         2.3194852974     1.5435869810     0.8704218933
Bq         2.3484372035     1.5337600109     0.6727726641
Bq         2.3050093444     1.5485004661     0.9692465079
Bq         2.3629131566     1.5288465258     0.5739480495
Bq         2.2905333914     1.5534139512     1.0680711224
Bq         2.3773891096     1.5239330407     0.4751234349
Bq         2.2760574383     1.5583274363     1.1668957370
Bq         2.3918650627     1.5190195556     0.3762988203
Bq         2.2615814853     1.5632409214     1.2657203516
Bq         2.4063410157     1.5141060705     0.2774742058
Bq         2.3339612505     1.5386734959     0.7715972787
Bq         2.3201974314     1.6434661964     0.8655602885
Bq         2.3491493375     1.6336392262     0.6679110593
Bq         2.3057214783     1.6483796815     0.9643849031
Bq         2.3636252905     1.6287257412     0.5690864447
Bq         2.2912455253     1.6532931666     1.0632095177
Bq         2.3781012436     1.6238122561     0.4702618302
Bq         2.2767695723     1.6582066517     1.1620341323
Bq         2.3925771966     1.6188987710     0.3714372156
Bq         2.2622936192     1.6631201367     1.2608587468
Bq         2.4070531497     1.6139852859     0.2726126010
Bq         2.3346733844     1.6385527113     0.7667356739
Bq         2.3209095653     1.7433454118     0.8606986837
Bq         2.3498614714     1.7335184416     0.6630494546
Bq         2.3064336123     1.7482588969     0.9595232983
Bq         2.3643374245     1.7286049565     0.5642248400
Bq         2.2919576592     1.7531723819     1.0583479129
Bq         2.3788133775     1.7236914715     0.4654002254
Bq         2.2774817062     1.7580858670     1.1571725275
Bq         2.3932893305     1.7187779864     0.3665756108
Bq         2.2630057532     1.7629993521     1.2559971421
Bq         2.4077652836     1.7138645013     0.2677509962
Bq         2.3353855184     1.7384319267     0.7618740692
Bq         2.3216216993     1.8432246272     0.8558370790
Bq         2.3505736054     1.8333976570     0.6581878498
Bq         2.3071457462     1.8481381122     0.9546616936
Bq         2.3650495584     1.8284841719     0.5593632352
Bq         2.2926697932     1.8530515973     1.0534863081
Bq         2.3795255114     1.8235706868     0.4605386206
Bq         2.2781938401     1.8579650824     1.1523109227
Bq         2.3940014645     1.8186572017     0.3617140060
Bq         2.2637178871     1.8628785675     1.2511355373
Bq         2.4084774175     1.8137437167     0.2628893915
Bq         2.3360976523     1.8383111421     0.7570124644
Bq         2.3223338332     1.9431038425     0.8509754742
Bq         2.3512857393     1.9332768724     0.6533262450
Bq         2.3078578802     1.9480173276     0.9498000888
Bq         2.3657616923     1.9283633873     0.5545016304
Bq         2.2933819271     1.9529308127     1.0486247034
Bq         2.3802376454     1.9234499022     0.4556770159
Bq         2.2789059741     1.9578442978     1.1474493180
Bq         2.3947135984     1.9185364171     0.3568524013
Bq         2.2644300210     1.9627577829     1.2462739325
Bq         2.4091895515     1.9136229320     0.2580277867
Bq         2.3368097863     1.9381903575     0.7521508596
Bq         2.3230459672     2.0429830579     0.8461138694
Bq         2.3519978732     2.0331560878     0.6484646403
Bq         2.3085700141     2.0478965430     0.9449384840
Bq         2.3664738263     2.0282426027     0.5496400257
Bq         2.2940940611     2.0528100281     1.0437630986
Bq         2.3809497793     2.0233291176     0.4508154111
Bq         2.2796181080     2.0577235132     1.1425877132
Bq         2.3954257324     2.0184156325     0.3519907965
Bq         2.2651421550     2.0626369982     1.2414123278
Bq         2.4099016854     2.0135021474     0.2531661819
Bq         2.3375219202     2.0380695728     0.7472892549
Bq         2.3237581011     2.1428622733     0.8412522647
Bq         2.3527100072     2.1330353031     0.6436030355
Bq         2.3092821481     2.1477757584     0.9400768793
Bq         2.3671859602     2.1281218180     0.5447784209
Bq         2.2948061950     2.1526892435     1.0389014938
Bq         2.3816619133     2.1232083330     0.4459538063
Bq         2.2803302420     2.1576027285     1.1377261084
Bq         2.3961378663     2.1182948479     0.3471291917
Bq         2.2658542889     2.1625162136     1.2365507230
Bq         2.4106138194     2.1133813628     0.2483045772
Bq         2.3382340541     2.1379487882     0.7424276501
Bq         2.3244702350     2.2427414887     0.8363906599

1
2
3
4
5
6
7
8
9
10
11
12
13
14
15
16
17
18
19
20
21
22
23
24
25
26
27
28
29
30
31
32
33
34
35
36
37
38
39
40
41
42
43
44
45
46
47
48
49
50
51
52
53
54
55
56
57
58
59
60
61
62
63
64
65
66
67
68
69
70
71
72
73
74
75
76
77
78
79
80
81
82
83
84
85
86
87
88
89
90
91
92
93
94
95
96
97
98
99
100
101
102
103
104
105
106
107
108
109
110
111
112
113
114
115
116
117
118
119
120
121
122
123
124
125
126
127
128
129
130
131
132
133
134
135
136
137
138
139
140
141
142
143
144
145
146
147
148
149
150
151
152
153
154
155
156
157
158
159
160
161
162
163
164
165
166
167
168
169
170
171
172
173
174
175
176
177
178
179
180
181
182
183
184
185
186
187
188
189
190
191
192
193
194
195
196
197
198
199
200
201
202
203
204
205
206
207
208
209
210
211
212
213
214
215
216
217
218
219
220
221
222
223
224
225
226
227
228
229
230
231
232
233
234
235
236

