%nproc=8
%mem=1000MB
# rb3lyp/6-311+g** NMR geom=connectivity

Title

0 1
C    -4.0500558   -0.5771862    0.8136712
H    -5.0263804   -1.0082727    1.0024760
C    -3.9381552    0.6617804    0.2400876
H    -4.8252424    1.2338890   -0.0111295
C    -2.6768410    1.2433246    0.0057578
C    -1.4974121    0.5051527    0.2848253
C    -1.6508332   -0.7338728    0.9404026
H    -0.7713646   -1.2730967    1.2633753
C    -2.8898548   -1.2624035    1.1994307
H    -2.9683706   -2.2124563    1.7152676
C    -2.5773185    2.5963696   -0.4192930
H    -3.4870728    3.1412239   -0.6474055
C    -1.3741895    3.2147896   -0.4364030
H    -1.2997315    4.2742019   -0.6578144
C    -0.1719488    2.4994090   -0.1734588
C    -0.2043917    1.1018437    0.0192689
C     1.0513491    3.2042560   -0.0676222
H     1.0427344    4.2819499   -0.1896997
C     2.1942091    2.5487446    0.2579577
H     3.1168527    3.0912848    0.4334727
C     2.2216473    1.1336562    0.2934990
C     1.0486931    0.3945528    0.0302412
C     3.4483363    0.4614633    0.5573939
H     4.3095794    1.0606054    0.8334846
C     3.5427346   -0.8855926    0.4749463
H     4.4731467   -1.3939704    0.7038822
C     2.4490052   -1.6474447   -0.0196319
C     1.2150704   -1.0057258   -0.3013573
C     0.2531113   -1.7434440   -1.0216591
H    -0.6541356   -1.2535051   -1.3462847
C     0.4494193   -3.0628597   -1.3413779
H    -0.3083162   -3.5944309   -1.9054060
C     1.6251726   -3.7207967   -0.9552541
H     1.7670048   -4.7687404   -1.1927019
C     2.6109872   -3.0144177   -0.3183050
H     3.5525612   -3.4902813   -0.0646367
Bq        -0.5825446167     1.3639668484     0.2507429096
Bq        -0.5843145945     1.5813804334     0.7009963940
Bq        -0.5821906211     1.3204841314     0.1606922127
Bq        -0.5846685901     1.6248631504     0.7910470909
Bq        -0.5818366255     1.2770014144     0.0706415158
Bq        -0.5850225857     1.6683458674     0.8810977878
Bq        -0.5814826299     1.2335186974    -0.0194091811
Bq        -0.5832526078     1.4509322824     0.4308443034
Bq        -0.5834356711     1.5844663921     0.4774126192
Bq        -0.5827276800     1.4975009581     0.2973112254
Bq        -0.5837896667     1.6279491091     0.5674633161
Bq        -0.5823736844     1.4540182411     0.2072605286
Bq        -0.5841436623     1.6714318261     0.6575140130
Bq        -0.5820196888     1.4105355241     0.1172098317
Bq        -0.5844976578     1.7149145431     0.7475647099
Bq        -0.5816656932     1.3670528071     0.0271591348
Bq        -0.5848516534     1.7583972601     0.8376154067
Bq        -0.5813116977     1.3235700901    -0.0628915621
Bq        -0.5830816755     1.5409836751     0.3873619223
Bq        -0.5832647388     1.6745177848     0.4339302382
Bq        -0.5825567477     1.5875523507     0.2538288444
Bq        -0.5836187344     1.7180005018     0.5239809351
Bq        -0.5822027521     1.5440696337     0.1637781475
Bq        -0.5839727300     1.7614832188     0.6140316319
Bq        -0.5818487565     1.5005869167     0.0737274506
Bq        -0.5843267256     1.8049659358     0.7040823288
Bq        -0.5814947610     1.4571041997    -0.0163232462
Bq        -0.5846807211     1.8484486528     0.7941330257
Bq        -0.5811407654     1.4136214827    -0.1063739431
Bq        -0.5829107433     1.6310350678     0.3438795413
Bq        -0.5830938066     1.7645691774     0.3904478571
Bq        -0.5823858154     1.6776037434     0.2103464634
Bq        -0.5834478021     1.8080518944     0.4804985540
Bq        -0.5820318198     1.6341210264     0.1202957665
Bq        -0.5838017977     1.8515346114     0.5705492509
Bq        -0.5816778243     1.5906383094     0.0302450696
Bq        -0.5841557933     1.8950173284     0.6605999478
Bq        -0.5813238287     1.5471555924    -0.0598056273
Bq        -0.5845097889     1.9385000454     0.7506506447
Bq        -0.5809698331     1.5036728754    -0.1498563242
Bq        -0.5827398110     1.7210864604     0.3003971603
Bq        -0.5829228743     1.8546205701     0.3469654761
Bq        -0.5822148831     1.7676551361     0.1668640823
Bq        -0.5832768699     1.8981032871     0.4370161730
Bq        -0.5818608876     1.7241724191     0.0768133855
Bq        -0.5836308654     1.9415860041     0.5270668699
Bq        -0.5815068920     1.6806897021    -0.0132373114
Bq        -0.5839848610     1.9850687211     0.6171175668
Bq        -0.5811528964     1.6372069851    -0.1032880083
Bq        -0.5843388566     2.0285514381     0.7071682636
Bq        -0.5807989008     1.5937242681    -0.1933387052
Bq        -0.5825688787     1.8111378531     0.2569147792
Bq        -0.5827519420     1.9446719628     0.3034830951
Bq        -0.5820439509     1.8577065288     0.1233817013
Bq        -0.5831059376     1.9881546798     0.3935337920
Bq        -0.5816899553     1.8142238118     0.0333310044
Bq        -0.5834599332     2.0316373968     0.4835844888
Bq        -0.5813359597     1.7707410947    -0.0567196925
Bq        -0.5838139287     2.0751201138     0.5736351857
Bq        -0.5809819641     1.7272583777    -0.1467703893
Bq        -0.5841679243     2.1186028308     0.6636858826
Bq        -0.5806279686     1.6837756607    -0.2368210862
Bq        -0.5823979464     1.9011892458     0.2134323982
Bq        -0.5825810097     2.0347233554     0.2600007140
Bq        -0.5818730186     1.9477579214     0.0798993203
Bq        -0.5829350053     2.0782060724     0.3500514109
Bq        -0.5815190230     1.9042752044    -0.0101513766
Bq        -0.5832890009     2.1216887894     0.4401021078
Bq        -0.5811650274     1.8607924874    -0.1002020735
Bq        -0.5836429965     2.1651715065     0.5301528047
Bq        -0.5808110319     1.8173097704    -0.1902527704
Bq        -0.5839969920     2.2086542235     0.6202035016
Bq        -0.5804570363     1.7738270534    -0.2803034673
Bq        -0.5822270142     1.9912406384     0.1699500172
Bq        -0.5824100775     2.1247747481     0.2165183330
Bq        -0.5817020863     2.0378093141     0.0364169392
Bq        -0.5827640730     2.1682574651     0.3065690299
Bq        -0.5813480907     1.9943265971    -0.0536337576
Bq        -0.5831180686     2.2117401821     0.3966197268
Bq        -0.5809940952     1.9508438801    -0.1436844545
Bq        -0.5834720642     2.2552228991     0.4866704237
Bq        -0.5806400996     1.9073611631    -0.2337351514
Bq        -0.5838260598     2.2987056161     0.5767211205
Bq        -0.5802861040     1.8638784461    -0.3237858483
Bq        -0.5820560819     2.0812920311     0.1264676361
Bq        -0.5822391452     2.2148261408     0.1730359520
Bq        -0.5815311540     2.1278607068    -0.0070654418
Bq        -0.5825931408     2.2583088578     0.2630866489
Bq        -0.5811771585     2.0843779898    -0.0971161387
Bq        -0.5829471363     2.3017915748     0.3531373457
Bq        -0.5808231629     2.0408952728    -0.1871668356
Bq        -0.5833011319     2.3452742918     0.4431880426
Bq        -0.5804691673     1.9974125558    -0.2772175324
Bq        -0.5836551275     2.3887570088     0.5332387395
Bq        -0.5801151717     1.9539298388    -0.3672682293
Bq        -0.5818851496     2.1713434238     0.0829852551
Bq        -0.5820682129     2.3048775334     0.1295535709
Bq        -0.5813602218     2.2179120994    -0.0505478228
Bq        -0.5824222085     2.3483602505     0.2196042678
Bq        -0.5810062262     2.1744293824    -0.1405985197
Bq        -0.5827762041     2.3918429675     0.3096549647
Bq        -0.5806522306     2.1309466654    -0.2306492166
Bq        -0.5831301996     2.4353256845     0.3997056616
Bq        -0.5802982350     2.0874639484    -0.3206999135
Bq        -0.5834841952     2.4788084015     0.4897563585
Bq        -0.5799442395     2.0439812314    -0.4107506104
Bq        -0.5817142173     2.2613948164     0.0395028741
Bq        -0.5818972806     2.3949289261     0.0860711899
Bq        -0.5811892895     2.3079634921    -0.0940302039
Bq        -0.5822512762     2.4384116431     0.1761218868
Bq        -0.5808352939     2.2644807751    -0.1840809007
Bq        -0.5826052718     2.4818943601     0.2661725837
Bq        -0.5804812983     2.2209980581    -0.2741315976
Bq        -0.5829592674     2.5253770771     0.3562232806
Bq        -0.5801273028     2.1775153411    -0.3641822945
Bq        -0.5833132629     2.5688597941     0.4462739774
Bq        -0.5797733072     2.1340326241    -0.4542329914
Bq        -0.5815432851     2.3514462091    -0.0039795070
Bq        -0.5817263484     2.4849803188     0.0425888089
Bq        -0.5810183572     2.3980148848    -0.1375125849
Bq        -0.5820803439     2.5284630358     0.1326395058
Bq        -0.5806643616     2.3545321678    -0.2275632818
Bq        -0.5824343395     2.5719457528     0.2226902026
Bq        -0.5803103661     2.3110494508    -0.3176139787
Bq        -0.5827883351     2.6154284698     0.3127408995
Bq        -0.5799563705     2.2675667338    -0.4076646755
Bq        -0.5831423307     2.6589111868     0.4027915964
Bq        -0.5796023749     2.2240840168    -0.4977153724
Bq        -0.5813723528     2.4414976018    -0.0474618880
Bq        -0.4902737347    -2.0175893147     2.2171009644
Bq        -0.4895657436    -2.1045547487     2.0369995707
Bq        -0.4906277303    -1.9741065977     2.3071516613
Bq        -0.4892117480    -2.1480374658     1.9469488738
Bq        -0.4909817259    -1.9306238807     2.3972023582
Bq        -0.4888577525    -2.1915201828     1.8568981769
Bq        -0.4913357215    -1.8871411637     2.4872530551
Bq        -0.4885037569    -2.2350028998     1.7668474800
Bq        -0.4916897170    -1.8436584467     2.5773037520
Bq        -0.4881497613    -2.2784856168     1.6767967831
Bq        -0.4899197392    -2.0610720317     2.1270502676
Bq        -0.4901028025    -1.9275379221     2.1736185834
Bq        -0.4893948113    -2.0145033561     1.9935171896
Bq        -0.4904567980    -1.8840552051     2.2636692803
Bq        -0.4890408158    -2.0579860731     1.9034664928
Bq        -0.4908107936    -1.8405724881     2.3537199772
Bq        -0.4886868202    -2.1014687901     1.8134157959
Bq        -0.4911647892    -1.7970897711     2.4437706741
Bq        -0.4883328246    -2.1449515071     1.7233650990
Bq        -0.4915187848    -1.7536070540     2.5338213709
Bq        -0.4879788290    -2.1884342241     1.6333144021
Bq        -0.4897488069    -1.9710206391     2.0835678865
Bq        -0.4899318702    -1.8374865294     2.1301362024
Bq        -0.4892238791    -1.9244519634     1.9500348086
Bq        -0.4902858658    -1.7940038124     2.2201868993
Bq        -0.4888698835    -1.9679346804     1.8599841117
Bq        -0.4906398613    -1.7505210954     2.3102375961
Bq        -0.4885158879    -2.0114173974     1.7699334148
Bq        -0.4909938569    -1.7070383784     2.4002882930
Bq        -0.4881618923    -2.0549001144     1.6798827180
Bq        -0.4913478525    -1.6635556614     2.4903389899
Bq        -0.4878078968    -2.0983828314     1.5898320211
Bq        -0.4895778746    -1.8809692464     2.0400855055
Bq        -0.4897609379    -1.7474351367     2.0866538213
Bq        -0.4890529468    -1.8344005707     1.9065524276
Bq        -0.4901149335    -1.7039524197     2.1767045182
Bq        -0.4886989512    -1.8778832877     1.8165017307
Bq        -0.4904689291    -1.6604697027     2.2667552151
Bq        -0.4883449556    -1.9213660047     1.7264510338
Bq        -0.4908229246    -1.6169869857     2.3568059120
Bq        -0.4879909601    -1.9648487217     1.6364003369
Bq        -0.4911769202    -1.5735042687     2.4468566089
Bq        -0.4876369645    -2.0083314388     1.5463496401
Bq        -0.4894069424    -1.7909178537     1.9966031245
Bq        -0.4895900057    -1.6573837441     2.0431714403
Bq        -0.4888820145    -1.7443491781     1.8630700465
Bq        -0.4899440012    -1.6139010270     2.1332221372
Bq        -0.4885280189    -1.7878318951     1.7730193497
Bq        -0.4902979968    -1.5704183100     2.2232728341
Bq        -0.4881740234    -1.8313146121     1.6829686528
Bq        -0.4906519924    -1.5269355930     2.3133235310
Bq        -0.4878200278    -1.8747973291     1.5929179559
Bq        -0.4910059879    -1.4834528760     2.4033742278
Bq        -0.4874660322    -1.9182800461     1.5028672590
Bq        -0.4892360101    -1.7008664611     1.9531207434
Bq        -0.4894190734    -1.5673323514     1.9996890593
Bq        -0.4887110822    -1.6542977854     1.8195876655
Bq        -0.4897730690    -1.5238496344     2.0897397562
Bq        -0.4883570867    -1.6977805024     1.7295369686
Bq        -0.4901270645    -1.4803669174     2.1797904530
Bq        -0.4880030911    -1.7412632194     1.6394862718
Bq        -0.4904810601    -1.4368842004     2.2698411499
Bq        -0.4876490955    -1.7847459364     1.5494355749
Bq        -0.4908350557    -1.3934014834     2.3598918468
Bq        -0.4872950999    -1.8282286534     1.4593848780
Bq        -0.4890650778    -1.6108150684     1.9096383624
Bq        -0.4892481411    -1.4772809587     1.9562066782
Bq        -0.4885401500    -1.5642463927     1.7761052845
Bq        -0.4896021367    -1.4337982417     2.0462573751
Bq        -0.4881861544    -1.6077291097     1.6860545876
Bq        -0.4899561323    -1.3903155247     2.1363080720

1
2
3
4
5
6
7
8
9
10
11
12
13
14
15
16
17
18
19
20
21
22
23
24
25
26
27
28
29
30
31
32
33
34
35
36
37
38
39
40
41
42
43
44
45
46
47
48
49
50
51
52
53
54
55
56
57
58
59
60
61
62
63
64
65
66
67
68
69
70
71
72
73
74
75
76
77
78
79
80
81
82
83
84
85
86
87
88
89
90
91
92
93
94
95
96
97
98
99
100
101
102
103
104
105
106
107
108
109
110
111
112
113
114
115
116
117
118
119
120
121
122
123
124
125
126
127
128
129
130
131
132
133
134
135
136
137
138
139
140
141
142
143
144
145
146
147
148
149
150
151
152
153
154
155
156
157
158
159
160
161
162
163
164
165
166
167
168
169
170
171
172
173
174
175
176
177
178
179
180
181
182
183
184
185
186
187
188
189
190
191
192
193
194
195
196
197
198
199
200
201
202
203
204
205
206
207
208
209
210
211
212
213
214
215
216
217
218
219
220
221
222
223
224
225
226
227
228
229
230
231
232
233
234
235
236

