%nproc=8
%mem=1000MB
# rb3lyp/6-311+g** NMR geom=connectivity

Title

0 1
C    -4.0500558   -0.5771862    0.8136712
H    -5.0263804   -1.0082727    1.0024760
C    -3.9381552    0.6617804    0.2400876
H    -4.8252424    1.2338890   -0.0111295
C    -2.6768410    1.2433246    0.0057578
C    -1.4974121    0.5051527    0.2848253
C    -1.6508332   -0.7338728    0.9404026
H    -0.7713646   -1.2730967    1.2633753
C    -2.8898548   -1.2624035    1.1994307
H    -2.9683706   -2.2124563    1.7152676
C    -2.5773185    2.5963696   -0.4192930
H    -3.4870728    3.1412239   -0.6474055
C    -1.3741895    3.2147896   -0.4364030
H    -1.2997315    4.2742019   -0.6578144
C    -0.1719488    2.4994090   -0.1734588
C    -0.2043917    1.1018437    0.0192689
C     1.0513491    3.2042560   -0.0676222
H     1.0427344    4.2819499   -0.1896997
C     2.1942091    2.5487446    0.2579577
H     3.1168527    3.0912848    0.4334727
C     2.2216473    1.1336562    0.2934990
C     1.0486931    0.3945528    0.0302412
C     3.4483363    0.4614633    0.5573939
H     4.3095794    1.0606054    0.8334846
C     3.5427346   -0.8855926    0.4749463
H     4.4731467   -1.3939704    0.7038822
C     2.4490052   -1.6474447   -0.0196319
C     1.2150704   -1.0057258   -0.3013573
C     0.2531113   -1.7434440   -1.0216591
H    -0.6541356   -1.2535051   -1.3462847
C     0.4494193   -3.0628597   -1.3413779
H    -0.3083162   -3.5944309   -1.9054060
C     1.6251726   -3.7207967   -0.9552541
H     1.7670048   -4.7687404   -1.1927019
C     2.6109872   -3.0144177   -0.3183050
H     3.5525612   -3.4902813   -0.0646367
Bq         0.1061283998     4.2836439985    -0.6736855777
Bq         0.0869184931     4.4063905854    -0.1893672373
Bq         0.1343502324    -0.4160516942     1.1379611660
Bq         0.1420341951    -0.4651503290     0.9442338299
Bq         0.1305082511    -0.3915023768     1.2348248341
Bq         0.1458761764    -0.4896996464     0.8473701618
Bq         0.1266662697    -0.3669530595     1.3316885022
Bq         0.1497181577    -0.5142489637     0.7505064937
Bq         0.1228242884    -0.3424037421     1.4285521703
Bq         0.1535601391    -0.5387982811     0.6536428256
Bq         0.1189823071    -0.3178544247     1.5254158384
Bq         0.1574021204    -0.5633475985     0.5567791575
Bq         0.1381922137    -0.4406010116     1.0410974980
Bq         0.1353231866    -0.3191118623     1.1134311366
Bq         0.1430071493    -0.3682104970     0.9197038004
Bq         0.1314812053    -0.2945625449     1.2102948047
Bq         0.1468491306    -0.3927598144     0.8228401323
Bq         0.1276392240    -0.2700132275     1.3071584728
Bq         0.1506911119    -0.4173091318     0.7259764643
Bq         0.1237972426    -0.2454639102     1.4040221409
Bq         0.1545330933    -0.4418584492     0.6291127962
Bq         0.1199552613    -0.2209145928     1.5008858090
Bq         0.1583750746    -0.4664077665     0.5322491281
Bq         0.1391651680    -0.3436611797     1.0165674685
Bq         0.1362961409    -0.2221720303     1.0889011072
Bq         0.1439801035    -0.2712706651     0.8951737710
Bq         0.1324541595    -0.1976227130     1.1857647753
Bq         0.1478220848    -0.2958199825     0.7983101029
Bq         0.1286121782    -0.1730733956     1.2826284434
Bq         0.1516640662    -0.3203692998     0.7014464348
Bq         0.1247701969    -0.1485240782     1.3794921115
Bq         0.1555060475    -0.3449186172     0.6045827667
Bq         0.1209282155    -0.1239747608     1.4763557795
Bq         0.1593480288    -0.3694679346     0.5077190986
Bq         0.1401381222    -0.2467213477     0.9920374391
Bq         0.1372690951    -0.1252321984     1.0643710778
Bq         0.1449530577    -0.1743308332     0.8706437416
Bq         0.1334271138    -0.1006828810     1.1612347459
Bq         0.1487950391    -0.1988801505     0.7737800735
Bq         0.1295851324    -0.0761335637     1.2580984139
Bq         0.1526370204    -0.2234294679     0.6769164054
Bq         0.1257431511    -0.0515842463     1.3549620820
Bq         0.1564790017    -0.2479787853     0.5800527373
Bq         0.1219011698    -0.0270349289     1.4518257501
Bq         0.1603209831    -0.2725281027     0.4831890692
Bq         0.1411110764    -0.1497815158     0.9675074097
Bq         0.1382420493    -0.0282923665     1.0398410483
Bq         0.1459260120    -0.0773910012     0.8461137122
Bq         0.1344000680    -0.0037430491     1.1367047164
Bq         0.1497679933    -0.1019403186     0.7492500441
Bq         0.1305580866     0.0208062683     1.2335683845
Bq         0.1536099746    -0.1264896360     0.6523863760
Bq         0.1267161053     0.0453555857     1.3304320526
Bq         0.1574519560    -0.1510389533     0.5555227079
Bq         0.1228741240     0.0699049030     1.4272957207
Bq         0.1612939373    -0.1755882707     0.4586590398
Bq         0.1420840306    -0.0528416838     0.9429773802
Bq         0.1392150035     0.0686474655     1.0153110189
Bq         0.1468989662     0.0195488307     0.8215836827
Bq         0.1353730222     0.0931967828     1.1121746870
Bq         0.1507409475    -0.0050004867     0.7247200146
Bq         0.1315310409     0.1177461002     1.2090383551
Bq         0.1545829288    -0.0295498040     0.6278563465
Bq         0.1276890595     0.1422954176     1.3059020232
Bq         0.1584249102    -0.0540991214     0.5309926785
Bq         0.1238470782     0.1668447350     1.4027656913
Bq         0.1622668915    -0.0786484388     0.4341290104
Bq         0.1430569849     0.0440981481     0.9184473508
Bq         0.1401879578     0.1655872974     0.9907809895
Bq         0.1478719204     0.1164886627     0.7970536533
Bq         0.1363459764     0.1901366148     1.0876446576
Bq         0.1517139017     0.0919393453     0.7001899852
Bq         0.1325039951     0.2146859322     1.1845083257
Bq         0.1555558831     0.0673900279     0.6033263171
Bq         0.1286620138     0.2392352495     1.2813719938
Bq         0.1593978644     0.0428407105     0.5064626490
Bq         0.1248200324     0.2637845669     1.3782356618
Bq         0.1632398457     0.0182913932     0.4095989809
Bq         0.1440299391     0.1410379800     0.8939173214
Bq         0.1411609120     0.2625271294     0.9662509601
Bq         0.1488448746     0.2134284946     0.7725236239
Bq         0.1373189306     0.2870764467     1.0631146281
Bq         0.1526868560     0.1888791772     0.6756599558
Bq         0.1334769493     0.3116257641     1.1599782962
Bq         0.1565288373     0.1643298598     0.5787962877
Bq         0.1296349680     0.3361750815     1.2568419643
Bq         0.1603708186     0.1397805425     0.4819326196
Bq         0.1257929867     0.3607243989     1.3537056324
Bq         0.1642128000     0.1152312251     0.3850689515
Bq         0.1450028933     0.2379778120     0.8693872920
Bq         0.1421338662     0.3594669613     0.9417209306
Bq         0.1498178289     0.3103683265     0.7479935944
Bq         0.1382918849     0.3840162787     1.0385845987
Bq         0.1536598102     0.2858190092     0.6511299264
Bq         0.1344499035     0.4085655960     1.1354482668
Bq         0.1575017915     0.2612696918     0.5542662583
Bq         0.1306079222     0.4331149134     1.2323119349
Bq         0.1613437728     0.2367203744     0.4574025902
Bq         0.1267659409     0.4576642308     1.3291756030
Bq         0.1651857542     0.2121710570     0.3605389221
Bq         0.1459758475     0.3349176439     0.8448572625
Bq         0.1431068204     0.4564067932     0.9171909012
Bq         0.1507907831     0.4073081585     0.7234635650
Bq         0.1392648391     0.4809561106     1.0140545693
Bq         0.1546327644     0.3827588411     0.6265998969
Bq         0.1354228578     0.5055054280     1.1109182374
Bq         0.1584747457     0.3582095237     0.5297362288
Bq         0.1315808764     0.5300547454     1.2077819055
Bq         0.1623167271     0.3336602064     0.4328725607
Bq         0.1277388951     0.5546040627     1.3046455736
Bq         0.1661587084     0.3091108890     0.3360088927
Bq         0.1469488018     0.4318574759     0.8203272331
Bq         0.1440797747     0.5533466252     0.8926608718
Bq         0.1517637373     0.5042479904     0.6989335356
Bq         0.1402377933     0.5778959425     0.9895245399
Bq         0.1556057186     0.4796986730     0.6020698675
Bq         0.1363958120     0.6024452599     1.0863882080
Bq         0.1594477000     0.4551493557     0.5052061994
Bq         0.1325538307     0.6269945773     1.1832518760
Bq         0.1632896813     0.4306000383     0.4083425313
Bq         0.1287118493     0.6515438947     1.2801155441
Bq         0.1671316626     0.4060507209     0.3114788632
Bq         0.1479217560     0.5287973078     0.7957972037
Bq         0.1450527289     0.6502864571     0.8681308423
Bq         0.1527366915     0.6011878224     0.6744035062
Bq         0.1412107475     0.6748357745     0.9649945104
Bq         0.1565786729     0.5766385050     0.5775398381
Bq         0.1373687662     0.6993850919     1.0618581785
Bq         0.1604206542     0.5520891876     0.4806761700
Bq         0.1335267849     0.7239344092     1.1587218466
Bq         0.1642626355     0.5275398702     0.3838125019
Bq         0.1296848036     0.7484837266     1.2555855147
Bq         0.1681046169     0.5029905529     0.2869488338
Bq         0.1488947102     0.6257371397     0.7712671743
Bq         0.1460256831     0.7472262890     0.8436008129
Bq         0.1537096458     0.6981276543     0.6498734767
Bq         0.1421837018     0.7717756064     0.9404644810
Bq         0.1575516271     0.6735783369     0.5530098086
Bq         0.1383417204     0.7963249238     1.0373281491
Bq         0.1613936084     0.6490290195     0.4561461406
Bq         0.1344997391     0.8208742412     1.1341918172
Bq         0.1652355897     0.6244797022     0.3592824725
Bq         0.1306577578     0.8454235585     1.2310554853
Bq         0.1690775711     0.5999303848     0.2624188044
Bq         0.1498676644     0.7226769717     0.7467371448
Bq         0.1469986373     0.8441661210     0.8190707835
Bq         0.1546826000     0.7950674862     0.6253434473
Bq         0.1431566560     0.8687154384     0.9159344516
Bq         0.1585245813     0.7705181689     0.5284797792
Bq         0.1393146747     0.8932647557     1.0127981197
Bq         0.1623665626     0.7459688515     0.4316161111
Bq         0.1354726933     0.9178140731     1.1096617878
Bq         0.1662085440     0.7214195341     0.3347524430
Bq         0.1316307120     0.9423633905     1.2065254559
Bq         0.1700505253     0.6968702167     0.2378887750
Bq         0.1508406187     0.8196168036     0.7222071154
Bq         0.1479715916     0.9411059529     0.7945407541
Bq         0.1556555542     0.8920073182     0.6008134179
Bq         0.1441296102     0.9656552703     0.8914044222
Bq         0.1594975355     0.8674580008     0.5039497498
Bq         0.1402876289     0.9902045877     0.9882680902
Bq         0.1633395169     0.8429086834     0.4070860817
Bq         0.1364456476     1.0147539051     1.0851317583
Bq         0.1671814982     0.8183593660     0.3102224136
Bq         0.1326036662     1.0393032224     1.1819954264
Bq         0.1710234795     0.7938100487     0.2133587455
Bq         0.1518135729     0.9165566355     0.6976770860
Bq         0.1489445458     1.0380457849     0.7700107246
Bq         0.1566285084     0.9889471501     0.5762833885
Bq         0.1451025644     1.0625951022     0.8668743927
Bq         0.1604704898     0.9643978327     0.4794197204
Bq         0.1412605831     1.0871444196     0.9637380608
Bq         0.1643124711     0.9398485154     0.3825560523
Bq         0.1374186018     1.1116937370     1.0606017289
Bq         0.1681544524     0.9152991980     0.2856923842
Bq         0.1335766205     1.1362430544     1.1574653970
Bq         0.1719964337     0.8907498806     0.1888287161
Bq         0.1527865271     1.0134964675     0.6731470565
Bq         0.1499175000     1.1349856168     0.7454806952
Bq         0.1576014627     1.0858869821     0.5517533590
Bq         0.1460755187     1.1595349342     0.8423443633
Bq         0.1614434440     1.0613376647     0.4548896909
Bq         0.1422335373     1.1840842516     0.9392080314
Bq         0.1652854253     1.0367883473     0.3580260228
Bq         0.1383915560     1.2086335689     1.0360716995
Bq         0.1691274066     1.0122390299     0.2611623548
Bq         0.1345495747     1.2331828863     1.1329353676
Bq         0.1729693880     0.9876897125     0.1642986867
Bq         0.1537594813     1.1104362994     0.6486170271
Bq         0.1508904542     1.2319254487     0.7209506658
Bq         0.1585744169     1.1828268140     0.5272233296
Bq         0.1470484729     1.2564747661     0.8178143339
Bq         0.1624163982     1.1582774966     0.4303596615
Bq         0.1432064916     1.2810240835     0.9146780020
Bq         0.1662583795     1.1337281792     0.3334959934
Bq         0.1393645102     1.3055734009     1.0115416701
Bq         0.1701003609     1.1091788619     0.2366323253
Bq         0.1355225289     1.3301227182     1.1084053381
Bq         0.1739423422     1.0846295445     0.1397686572
Bq         0.1547324356     1.2073761314     0.6240869977

1
2
3
4
5
6
7
8
9
10
11
12
13
14
15
16
17
18
19
20
21
22
23
24
25
26
27
28
29
30
31
32
33
34
35
36
37
38
39
40
41
42
43
44
45
46
47
48
49
50
51
52
53
54
55
56
57
58
59
60
61
62
63
64
65
66
67
68
69
70
71
72
73
74
75
76
77
78
79
80
81
82
83
84
85
86
87
88
89
90
91
92
93
94
95
96
97
98
99
100
101
102
103
104
105
106
107
108
109
110
111
112
113
114
115
116
117
118
119
120
121
122
123
124
125
126
127
128
129
130
131
132
133
134
135
136
137
138
139
140
141
142
143
144
145
146
147
148
149
150
151
152
153
154
155
156
157
158
159
160
161
162
163
164
165
166
167
168
169
170
171
172
173
174
175
176
177
178
179
180
181
182
183
184
185
186
187
188
189
190
191
192
193
194
195
196
197
198
199
200
201
202
203
204
205
206
207
208
209
210
211
212
213
214
215
216
217
218
219
220
221
222
223
224
225
226
227
228
229
230
231
232
233
234
235
236

