%nproc=8
%mem=1000MB
# rb3lyp/6-311+g** NMR geom=connectivity

Title

0 1
C    -4.0500558   -0.5771862    0.8136712
H    -5.0263804   -1.0082727    1.0024760
C    -3.9381552    0.6617804    0.2400876
H    -4.8252424    1.2338890   -0.0111295
C    -2.6768410    1.2433246    0.0057578
C    -1.4974121    0.5051527    0.2848253
C    -1.6508332   -0.7338728    0.9404026
H    -0.7713646   -1.2730967    1.2633753
C    -2.8898548   -1.2624035    1.1994307
H    -2.9683706   -2.2124563    1.7152676
C    -2.5773185    2.5963696   -0.4192930
H    -3.4870728    3.1412239   -0.6474055
C    -1.3741895    3.2147896   -0.4364030
H    -1.2997315    4.2742019   -0.6578144
C    -0.1719488    2.4994090   -0.1734588
C    -0.2043917    1.1018437    0.0192689
C     1.0513491    3.2042560   -0.0676222
H     1.0427344    4.2819499   -0.1896997
C     2.1942091    2.5487446    0.2579577
H     3.1168527    3.0912848    0.4334727
C     2.2216473    1.1336562    0.2934990
C     1.0486931    0.3945528    0.0302412
C     3.4483363    0.4614633    0.5573939
H     4.3095794    1.0606054    0.8334846
C     3.5427346   -0.8855926    0.4749463
H     4.4731467   -1.3939704    0.7038822
C     2.4490052   -1.6474447   -0.0196319
C     1.2150704   -1.0057258   -0.3013573
C     0.2531113   -1.7434440   -1.0216591
H    -0.6541356   -1.2535051   -1.3462847
C     0.4494193   -3.0628597   -1.3413779
H    -0.3083162   -3.5944309   -1.9054060
C     1.6251726   -3.7207967   -0.9552541
H     1.7670048   -4.7687404   -1.1927019
C     2.6109872   -3.0144177   -0.3183050
H     3.5525612   -3.4902813   -0.0646367
Bq        -1.5132321632     1.1342431494     0.1269741855
Bq        -1.5566600224     1.1489836046     0.4234480293
Bq        -1.4987562102     1.1293296643     0.0281495709
Bq        -1.5711359754     1.1538970897     0.5222726439
Bq        -1.4842802571     1.1244161792    -0.0706750436
Bq        -1.5856119284     1.1588105748     0.6210972584
Bq        -1.4698043041     1.1195026941    -0.1694996582
Bq        -1.6000878815     1.1637240599     0.7199218730
Bq        -1.4553283510     1.1145892090    -0.2683242728
Bq        -1.5277081163     1.1391566344     0.2257988001
Bq        -1.5414719354     1.2439493349     0.3197618099
Bq        -1.5125200293     1.2341223647     0.1221125808
Bq        -1.5559478884     1.2488628200     0.4185864245
Bq        -1.4980440762     1.2292088797     0.0232879662
Bq        -1.5704238415     1.2537763051     0.5174110391
Bq        -1.4835681232     1.2242953946    -0.0755366484
Bq        -1.5848997945     1.2586897901     0.6162356537
Bq        -1.4690921701     1.2193819095    -0.1743612630
Bq        -1.5993757475     1.2636032752     0.7150602683
Bq        -1.4546162171     1.2144684244    -0.2731858776
Bq        -1.5269959823     1.2390358498     0.2209371953
Bq        -1.5407598014     1.3438285503     0.3149002052
Bq        -1.5118078953     1.3340015801     0.1172509760
Bq        -1.5552357545     1.3487420354     0.4137248197
Bq        -1.4973319423     1.3290880950     0.0184263614
Bq        -1.5697117075     1.3536555204     0.5125494343
Bq        -1.4828559893     1.3241746099    -0.0803982532
Bq        -1.5841876606     1.3585690055     0.6113740489
Bq        -1.4683800362     1.3192611249    -0.1792228678
Bq        -1.5986636136     1.3634824906     0.7101986635
Bq        -1.4539040832     1.3143476398    -0.2780474824
Bq        -1.5262838484     1.3389150652     0.2160755906
Bq        -1.5400476675     1.4437077657     0.3100386004
Bq        -1.5110957614     1.4338807955     0.1123893712
Bq        -1.5545236205     1.4486212507     0.4088632150
Bq        -1.4966198084     1.4289673104     0.0135647566
Bq        -1.5689995736     1.4535347358     0.5076878296
Bq        -1.4821438553     1.4240538253    -0.0852598579
Bq        -1.5834755266     1.4584482209     0.6065124441
Bq        -1.4676679023     1.4191403402    -0.1840844725
Bq        -1.5979514797     1.4633617060     0.7053370587
Bq        -1.4531919492     1.4142268552    -0.2829090871
Bq        -1.5255717144     1.4387942806     0.2112139858
Bq        -1.5393355335     1.5435869810     0.3051769956
Bq        -1.5103836275     1.5337600109     0.1075277665
Bq        -1.5538114866     1.5485004661     0.4040016102
Bq        -1.4959076744     1.5288465258     0.0087031519
Bq        -1.5682874396     1.5534139512     0.5028262248
Bq        -1.4814317214     1.5239330407    -0.0901214627
Bq        -1.5827633927     1.5583274363     0.6016508394
Bq        -1.4669557683     1.5190195556    -0.1889460773
Bq        -1.5972393457     1.5632409214     0.7004754540
Bq        -1.4524798153     1.5141060705    -0.2877706919
Bq        -1.5248595805     1.5386734959     0.2063523810
Bq        -1.5386233996     1.6434661964     0.3003153909
Bq        -1.5096714935     1.6336392262     0.1026661617
Bq        -1.5530993526     1.6483796815     0.3991400054
Bq        -1.4951955405     1.6287257412     0.0038415471
Bq        -1.5675753057     1.6532931666     0.4979646200
Bq        -1.4807195874     1.6238122561    -0.0949830675
Bq        -1.5820512587     1.6582066517     0.5967892346
Bq        -1.4662436344     1.6188987710    -0.1938076821
Bq        -1.5965272118     1.6631201367     0.6956138492
Bq        -1.4517676813     1.6139852859    -0.2926322966
Bq        -1.5241474466     1.6385527113     0.2014907763
Bq        -1.5379112657     1.7433454118     0.2954537861
Bq        -1.5089593596     1.7335184416     0.0978045569
Bq        -1.5523872187     1.7482588969     0.3942784007
Bq        -1.4944834065     1.7286049565    -0.0010200577
Bq        -1.5668631718     1.7531723819     0.4931030153
Bq        -1.4800074535     1.7236914715    -0.0998446722
Bq        -1.5813391248     1.7580858670     0.5919276298
Bq        -1.4655315004     1.7187779864    -0.1986692868
Bq        -1.5958150778     1.7629993521     0.6907522444
Bq        -1.4510555474     1.7138645013    -0.2974939014
Bq        -1.5234353126     1.7384319267     0.1966291715
Bq        -1.5371991317     1.8432246272     0.2905921813
Bq        -1.5082472256     1.8333976570     0.0929429522
Bq        -1.5516750848     1.8481381122     0.3894167959
Bq        -1.4937712726     1.8284841719    -0.0058816624
Bq        -1.5661510378     1.8530515973     0.4882414105
Bq        -1.4792953195     1.8235706868    -0.1047062770
Bq        -1.5806269909     1.8579650824     0.5870660251
Bq        -1.4648193665     1.8186572017    -0.2035308916
Bq        -1.5951029439     1.8628785675     0.6858906397
Bq        -1.4503434135     1.8137437167    -0.3023555062
Bq        -1.5227231787     1.8383111421     0.1917675667
Bq        -1.5364869978     1.9431038425     0.2857305766
Bq        -1.5075350917     1.9332768724     0.0880813474
Bq        -1.5509629508     1.9480173276     0.3845551911
Bq        -1.4930591386     1.9283633873    -0.0107432672
Bq        -1.5654389039     1.9529308127     0.4833798057
Bq        -1.4785831856     1.9234499022    -0.1095678818
Bq        -1.5799148569     1.9578442978     0.5822044203
Bq        -1.4641072326     1.9185364171    -0.2083924964
Bq        -1.5943908100     1.9627577829     0.6810290349
Bq        -1.4496312795     1.9136229320    -0.3072171109
Bq        -1.5220110447     1.9381903575     0.1869059620
Bq        -1.5357748638     2.0429830579     0.2808689718
Bq        -1.5068229577     2.0331560878     0.0832197426
Bq        -1.5502508169     2.0478965430     0.3796935864
Bq        -1.4923470047     2.0282426027    -0.0156048720
Bq        -1.5647267699     2.0528100281     0.4785182010
Bq        -1.4778710517     2.0233291176    -0.1144294865
Bq        -1.5792027230     2.0577235132     0.5773428155
Bq        -1.4633950986     2.0184156325    -0.2132541011
Bq        -1.5936786760     2.0626369982     0.6761674301
Bq        -1.4489191456     2.0135021474    -0.3120787157
Bq        -1.5212989108     2.0380695728     0.1820443572
Bq        -1.5350627299     2.1428622733     0.2760073670
Bq        -1.5061108238     2.1330353031     0.0783581379
Bq        -1.5495386829     2.1477757584     0.3748319816
Bq        -1.4916348708     2.1281218180    -0.0204664767
Bq        -1.5640146360     2.1526892435     0.4736565962
Bq        -1.4771589177     2.1232083330    -0.1192910913
Bq        -1.5784905890     2.1576027285     0.5724812108
Bq        -1.4626829647     2.1182948479    -0.2181157059
Bq        -1.5929665421     2.1625162136     0.6713058254
Bq        -1.4482070116     2.1133813628    -0.3169403205
Bq        -1.5205867769     2.1379487882     0.1771827524
Bq        -1.5343505960     2.2427414887     0.2711457623
Bq        -1.5053986899     2.2329145185     0.0734965331
Bq        -1.5488265490     2.2476549738     0.3699703768
Bq        -1.4909227368     2.2280010334    -0.0253280815
Bq        -1.5633025020     2.2525684588     0.4687949914
Bq        -1.4764467838     2.2230875483    -0.1241526961
Bq        -1.5777784551     2.2574819439     0.5676196060
Bq        -1.4619708307     2.2181740633    -0.2229773107
Bq        -1.5922544081     2.2623954290     0.6664442206
Bq        -1.4474948777     2.2132605782    -0.3218019252
Bq        -1.5198746429     2.2378280036     0.1723211477
Bq        -1.5336384620     2.3426207040     0.2662841575
Bq        -1.5046865559     2.3327937339     0.0686349283
Bq        -1.5481144151     2.3475341891     0.3651087721
Bq        -1.4902106029     2.3278802488    -0.0301896863
Bq        -1.5625903681     2.3524476742     0.4639333867
Bq        -1.4757346498     2.3229667637    -0.1290143008
Bq        -1.5770663211     2.3573611593     0.5627580012
Bq        -1.4612586968     2.3180532786    -0.2278389154
Bq        -1.5915422742     2.3622746444     0.6615826158
Bq        -1.4467827437     2.3131397936    -0.3266635300
Bq        -1.5191625090     2.3377072190     0.1674595429
Bq        -1.5329263281     2.4424999194     0.2614225527
Bq        -1.5039744220     2.4326729493     0.0637733236
Bq        -1.5474022811     2.4474134045     0.3602471673
Bq        -1.4894984689     2.4277594642    -0.0350512910
Bq        -1.5618782342     2.4523268896     0.4590717819
Bq        -1.4750225159     2.4228459791    -0.1338759056
Bq        -1.5763541872     2.4572403747     0.5578963965
Bq        -1.4605465628     2.4179324940    -0.2327005202
Bq        -1.5908301402     2.4621538598     0.6567210111
Bq        -1.4460706098     2.4130190089    -0.3315251348
Bq        -1.5184503750     2.4375864343     0.1625979381
Bq        -1.5322141941     2.5423791348     0.2565609480
Bq        -1.5032622880     2.5325521646     0.0589117188
Bq        -1.5466901472     2.5472926199     0.3553855625
Bq        -1.4887863350     2.5276386796    -0.0399128958
Bq        -1.5611661002     2.5522061050     0.4542101771
Bq        -1.4743103820     2.5227251945    -0.1387375104
Bq        -1.5756420533     2.5571195900     0.5530347917
Bq        -1.4598344289     2.5178117094    -0.2375621250
Bq        -1.5901180063     2.5620330751     0.6518594063
Bq        -1.4453584759     2.5128982243    -0.3363867395
Bq        -1.5177382411     2.5374656497     0.1577363334
Bq        -1.5315020602     2.6422583502     0.2516993432
Bq        -1.5025501541     2.6324313800     0.0540501140
Bq        -1.5459780132     2.6471718353     0.3505239578
Bq        -1.4880742011     2.6275178949    -0.0447745006
Bq        -1.5604539663     2.6520853203     0.4493485724
Bq        -1.4735982480     2.6226044098    -0.1435991151
Bq        -1.5749299193     2.6569988054     0.5481731869
Bq        -1.4591222950     2.6176909248    -0.2424237297
Bq        -1.5894058724     2.6619122905     0.6469978015
Bq        -1.4446463419     2.6127774397    -0.3412483443
Bq        -1.5170261071     2.6373448651     0.1528747286
Bq        -1.5307899262     2.7421375656     0.2468377384
Bq        -1.5018380202     2.7323105954     0.0491885093
Bq        -1.5452658793     2.7470510506     0.3456623530
Bq        -1.4873620671     2.7273971103    -0.0496361053
Bq        -1.5597418323     2.7519645357     0.4444869676
Bq        -1.4728861141     2.7224836252    -0.1484607199
Bq        -1.5742177854     2.7568780208     0.5433115822
Bq        -1.4584101610     2.7175701401    -0.2472853345
Bq        -1.5886937384     2.7617915059     0.6421361968
Bq        -1.4439342080     2.7126566551    -0.3461099491
Bq        -1.5163139732     2.7372240805     0.1480131238
Bq        -1.5300777923     2.8420167809     0.2419761337
Bq        -1.5011258862     2.8321898108     0.0443269045
Bq        -1.5445537453     2.8469302660     0.3408007482
Bq        -1.4866499332     2.8272763257    -0.0544977101
Bq        -1.5590296984     2.8518437511     0.4396253628
Bq        -1.4721739801     2.8223628406    -0.1533223247
Bq        -1.5735056514     2.8567572362     0.5384499774
Bq        -1.4576980271     2.8174493555    -0.2521469393
Bq        -1.5879816045     2.8616707213     0.6372745920
Bq        -1.4432220740     2.8125358704    -0.3509715538
Bq        -1.5156018393     2.8371032959     0.1431515191
Bq        -1.5293656584     2.9418959963     0.2371145289
Bq        -1.5004137523     2.9320690261     0.0394652997
Bq        -1.5438416114     2.9468094814     0.3359391435

1
2
3
4
5
6
7
8
9
10
11
12
13
14
15
16
17
18
19
20
21
22
23
24
25
26
27
28
29
30
31
32
33
34
35
36
37
38
39
40
41
42
43
44
45
46
47
48
49
50
51
52
53
54
55
56
57
58
59
60
61
62
63
64
65
66
67
68
69
70
71
72
73
74
75
76
77
78
79
80
81
82
83
84
85
86
87
88
89
90
91
92
93
94
95
96
97
98
99
100
101
102
103
104
105
106
107
108
109
110
111
112
113
114
115
116
117
118
119
120
121
122
123
124
125
126
127
128
129
130
131
132
133
134
135
136
137
138
139
140
141
142
143
144
145
146
147
148
149
150
151
152
153
154
155
156
157
158
159
160
161
162
163
164
165
166
167
168
169
170
171
172
173
174
175
176
177
178
179
180
181
182
183
184
185
186
187
188
189
190
191
192
193
194
195
196
197
198
199
200
201
202
203
204
205
206
207
208
209
210
211
212
213
214
215
216
217
218
219
220
221
222
223
224
225
226
227
228
229
230
231
232
233
234
235
236

