%nproc=8
%mem=1000MB
# rb3lyp/6-311+g** NMR geom=connectivity

Title

0 1
C    -4.0500558   -0.5771862    0.8136712
H    -5.0263804   -1.0082727    1.0024760
C    -3.9381552    0.6617804    0.2400876
H    -4.8252424    1.2338890   -0.0111295
C    -2.6768410    1.2433246    0.0057578
C    -1.4974121    0.5051527    0.2848253
C    -1.6508332   -0.7338728    0.9404026
H    -0.7713646   -1.2730967    1.2633753
C    -2.8898548   -1.2624035    1.1994307
H    -2.9683706   -2.2124563    1.7152676
C    -2.5773185    2.5963696   -0.4192930
H    -3.4870728    3.1412239   -0.6474055
C    -1.3741895    3.2147896   -0.4364030
H    -1.2997315    4.2742019   -0.6578144
C    -0.1719488    2.4994090   -0.1734588
C    -0.2043917    1.1018437    0.0192689
C     1.0513491    3.2042560   -0.0676222
H     1.0427344    4.2819499   -0.1896997
C     2.1942091    2.5487446    0.2579577
H     3.1168527    3.0912848    0.4334727
C     2.2216473    1.1336562    0.2934990
C     1.0486931    0.3945528    0.0302412
C     3.4483363    0.4614633    0.5573939
H     4.3095794    1.0606054    0.8334846
C     3.5427346   -0.8855926    0.4749463
H     4.4731467   -1.3939704    0.7038822
C     2.4490052   -1.6474447   -0.0196319
C     1.2150704   -1.0057258   -0.3013573
C     0.2531113   -1.7434440   -1.0216591
H    -0.6541356   -1.2535051   -1.3462847
C     0.4494193   -3.0628597   -1.3413779
H    -0.3083162   -3.5944309   -1.9054060
C     1.6251726   -3.7207967   -0.9552541
H     1.7670048   -4.7687404   -1.1927019
C     2.6109872   -3.0144177   -0.3183050
H     3.5525612   -3.4902813   -0.0646367
Bq         0.6389716694     1.3055734009     1.0313579894
Bq         0.6697075200     1.1091788619     0.2564486447
Bq         0.6351296881     1.3301227182     1.1282216575
Bq         0.6735495014     1.0846295445     0.1595849766
Bq         0.6543395947     1.2073761314     0.6439033170
Bq         0.6514705676     1.3288652807     0.7162369557
Bq         0.6591545303     1.2797666459     0.5225096195
Bq         0.6476285863     1.3534145981     0.8131006238
Bq         0.6629965116     1.2552173286     0.4256459514
Bq         0.6437866050     1.3779639154     0.9099642919
Bq         0.6668384929     1.2306680112     0.3287822833
Bq         0.6399446236     1.4025132328     1.0068279599
Bq         0.6706804743     1.2061186938     0.2319186152
Bq         0.6361026423     1.4270625502     1.1036916280
Bq         0.6745224556     1.1815693764     0.1350549471
Bq         0.6553125489     1.3043159633     0.6193732876
Bq         0.6524435218     1.4258051126     0.6917069262
Bq         0.6601274845     1.3767064779     0.4979795901
Bq         0.6486015405     1.4503544300     0.7885705943
Bq         0.6639694658     1.3521571605     0.4011159220
Bq         0.6447595592     1.4749037474     0.8854342624
Bq         0.6678114472     1.3276078431     0.3042522539
Bq         0.6409175778     1.4994530647     0.9822979305
Bq         0.6716534285     1.3030585257     0.2073885858
Bq         0.6370755965     1.5240023821     1.0791615986
Bq         0.6754954098     1.2785092084     0.1105249177
Bq         0.6562855032     1.4012557952     0.5948432582
Bq         0.6534164761     1.5227449446     0.6671768968
Bq         0.6611004387     1.4736463098     0.4734495606
Bq         0.6495744947     1.5472942619     0.7640405649
Bq         0.6649424200     1.4490969924     0.3765858926
Bq         0.6457325134     1.5718435793     0.8609042330
Bq         0.6687844014     1.4245476751     0.2797222245
Bq         0.6418905321     1.5963928967     0.9577679011
Bq         0.6726263827     1.3999983577     0.1828585564
Bq         0.6380485507     1.6209422141     1.0546315692
Bq         0.6764683640     1.3754490403     0.0859948883
Bq         0.6572584574     1.4981956272     0.5703132287
Bq         0.6543894303     1.6196847765     0.6426468674
Bq         0.6620733929     1.5705861417     0.4489195312
Bq         0.6505474490     1.6442340939     0.7395105355
Bq         0.6659153743     1.5460368244     0.3520558631
Bq         0.6467054676     1.6687834113     0.8363742036
Bq         0.6697573556     1.5214875070     0.2551921950
Bq         0.6428634863     1.6933327286     0.9332378717
Bq         0.6735993369     1.4969381896     0.1583285269
Bq         0.6390215050     1.7178820460     1.0301015398
Bq         0.6774413183     1.4723888722     0.0614648589
Bq         0.6582314116     1.5951354591     0.5457831993
Bq         0.6553623845     1.7166246084     0.6181168380
Bq         0.6630463472     1.6675259737     0.4243895018
Bq         0.6515204032     1.7411739258     0.7149805061
Bq         0.6668883285     1.6429766563     0.3275258337
Bq         0.6476784219     1.7657232432     0.8118441741
Bq         0.6707303098     1.6184273389     0.2306621656
Bq         0.6438364405     1.7902725606     0.9087078422
Bq         0.6745722912     1.5938780216     0.1337984975
Bq         0.6399944592     1.8148218779     1.0055715103
Bq         0.6784142725     1.5693287042     0.0369348294
Bq         0.6592043658     1.6920752911     0.5212531699
Bq         0.6563353387     1.8135644404     0.5935868085
Bq         0.6640193014     1.7644658056     0.3998594724
Bq         0.6524933574     1.8381137578     0.6904504766
Bq         0.6678612827     1.7399164882     0.3029958043
Bq         0.6486513761     1.8626630751     0.7873141447
Bq         0.6717032641     1.7153671709     0.2061321362
Bq         0.6448093947     1.8872123925     0.8841778128
Bq         0.6755452454     1.6908178535     0.1092684681
Bq         0.6409674134     1.9117617099     0.9810414809
Bq         0.6793872267     1.6662685361     0.0124048000
Bq         0.6601773201     1.7890151230     0.4967231404
Bq         0.6573082930     1.9105042723     0.5690567791
Bq         0.6649922556     1.8614056376     0.3753294429
Bq         0.6534663116     1.9350535897     0.6659204472
Bq         0.6688342369     1.8368563202     0.2784657748
Bq         0.6496243303     1.9596029071     0.7627841153
Bq         0.6726762183     1.8123070028     0.1816021068
Bq         0.6457823490     1.9841522244     0.8596477834
Bq         0.6765181996     1.7877576854     0.0847384387
Bq         0.6419403676     2.0087015418     0.9565114515
Bq         0.6803601809     1.7632083681    -0.0121252294
Bq         0.6611502743     1.8859549549     0.4721931110
Bq         0.6582812472     2.0074441043     0.5445267497
Bq         0.6659652098     1.9583454695     0.3507994135
Bq         0.6544392659     2.0319934216     0.6413904178
Bq         0.6698071912     1.9337961521     0.2539357454
Bq         0.6505972845     2.0565427390     0.7382540859
Bq         0.6736491725     1.9092468348     0.1570720773
Bq         0.6467553032     2.0810920564     0.8351177540
Bq         0.6774911538     1.8846975174     0.0602084092
Bq         0.6429133219     2.1056413738     0.9319814220
Bq         0.6813331352     1.8601482000    -0.0366552589
Bq         0.6621232285     1.9828947869     0.4476630816
Bq         0.6592542014     2.1043839362     0.5199967203
Bq         0.6669381641     2.0552853014     0.3262693841
Bq         0.6554122201     2.1289332536     0.6168603883
Bq         0.6707801454     2.0307359841     0.2294057160
Bq         0.6515702387     2.1534825709     0.7137240564
Bq         0.6746221267     2.0061866667     0.1325420479
Bq         0.6477282574     2.1780318883     0.8105877245
Bq         0.6784641081     1.9816373493     0.0356783798
Bq         0.6438862761     2.2025812057     0.9074513926
Bq         0.6823060894     1.9570880319    -0.0611852883
Bq         0.6630961827     2.0798346188     0.4231330522
Bq         0.6602271556     2.2013237681     0.4954666908
Bq         0.6679111183     2.1522251334     0.3017393547
Bq         0.6563851743     2.2258730855     0.5923303589
Bq         0.6717530996     2.1276758160     0.2048756866
Bq         0.6525431930     2.2504224029     0.6891940270
Bq         0.6755950809     2.1031264986     0.1080120185
Bq         0.6487012116     2.2749717203     0.7860576951
Bq         0.6794370623     2.0785771813     0.0111483504
Bq         0.6448592303     2.2995210376     0.8829213632
Bq         0.6832790436     2.0540278639    -0.0857153177
Bq         0.6640691370     2.1767744508     0.3986030227
Bq         0.6612001099     2.2982636001     0.4709366614
Bq         0.6688840725     2.2491649653     0.2772093252
Bq         0.6573581285     2.3228129174     0.5678003295
Bq         0.6727260538     2.2246156479     0.1803456571
Bq         0.6535161472     2.3473622348     0.6646639976
Bq         0.6765680352     2.2000663306     0.0834819890
Bq         0.6496741659     2.3719115522     0.7615276657
Bq         0.6804100165     2.1755170132    -0.0133816790
Bq         0.6458321845     2.3964608696     0.8583913338
Bq         0.6842519978     2.1509676958    -0.1102453471
Bq         0.6650420912     2.2737142827     0.3740729933
Bq         0.6621730641     2.3952034320     0.4464066320
Bq         0.6698570267     2.3461047973     0.2526792958
Bq         0.6583310828     2.4197527494     0.5432703001
Bq         0.6736990081     2.3215554799     0.1558156277
Bq         0.6544891014     2.4443020668     0.6401339682
Bq         0.6775409894     2.2970061625     0.0589519596
Bq         0.6506471201     2.4688513841     0.7369976362
Bq         0.6813829707     2.2724568451    -0.0379117085
Bq         0.6468051388     2.4934007015     0.8338613043
Bq         0.6852249521     2.2479075278    -0.1347753766
Bq         0.6660150454     2.3706541146     0.3495429639
Bq         0.6631460183     2.4921432640     0.4218766025
Bq         0.6708299810     2.4430446292     0.2281492664
Bq         0.6593040370     2.5166925813     0.5187402706
Bq         0.6746719623     2.4184953118     0.1312855983
Bq         0.6554620556     2.5412418987     0.6156039387
Bq         0.6785139436     2.3939459944     0.0344219302
Bq         0.6516200743     2.5657912161     0.7124676068
Bq         0.6823559250     2.3693966771    -0.0624417379
Bq         0.6477780930     2.5903405335     0.8093312749
Bq         0.6861979063     2.3448473597    -0.1593054060
Bq         0.6669879996     2.4675939466     0.3250129345
Bq         0.6641189725     2.5890830959     0.3973465731
Bq         0.6718029352     2.5399844611     0.2036192369
Bq         0.6602769912     2.6136324133     0.4942102412
Bq         0.6756449165     2.5154351438     0.1067555689
Bq         0.6564350099     2.6381817306     0.5910739093
Bq         0.6794868978     2.4908858264     0.0098919008
Bq         0.6525930285     2.6627310480     0.6879375774
Bq         0.6833288792     2.4663365090    -0.0869717673
Bq         0.6487510472     2.6872803654     0.7848012455
Bq         0.6871708605     2.4417871916    -0.1838354354
Bq         0.6679609539     2.5645337785     0.3004829050
Bq         0.6650919268     2.6860229278     0.3728165437
Bq         0.6727758894     2.6369242931     0.1790892075
Bq         0.6612499454     2.7105722452     0.4696802118
Bq         0.6766178707     2.6123749757     0.0822255394
Bq         0.6574079641     2.7351215626     0.5665438799
Bq         0.6804598521     2.5878256583    -0.0146381287
Bq         0.6535659828     2.7596708800     0.6634075480
Bq         0.6843018334     2.5632763409    -0.1115017968
Bq         0.6497240014     2.7842201973     0.7602712161
Bq         0.6881438147     2.5387270236    -0.2083654648
Bq         0.6689339081     2.6614736105     0.2759528756
Bq         0.6660648810     2.7829627598     0.3482865143
Bq         0.6737488436     2.7338641250     0.1545591781
Bq         0.6622228996     2.8075120771     0.4451501824
Bq         0.6775908250     2.7093148076     0.0576955100
Bq         0.6583809183     2.8320613945     0.5420138504
Bq         0.6814328063     2.6847654903    -0.0391681581
Bq         0.6545389370     2.8566107119     0.6388775185
Bq         0.6852747876     2.6602161729    -0.1360318262
Bq         0.6506969557     2.8811600293     0.7357411866
Bq         0.6891167690     2.6356668555    -0.2328954943
Bq         0.6699068623     2.7584134424     0.2514228462
Bq         0.6670378352     2.8799025917     0.3237564848
Bq         0.6747217979     2.8308039570     0.1300291487
Bq         0.6631958539     2.9044519091     0.4206201529
Bq         0.6785637792     2.8062546396     0.0331654806
Bq         0.6593538725     2.9290012265     0.5174838210
Bq         0.6824057605     2.7817053222    -0.0636981875
Bq         0.6555118912     2.9535505438     0.6143474891
Bq         0.6862477418     2.7571560048    -0.1605618556
Bq         0.6516699099     2.9780998612     0.7112111572
Bq         0.6900897232     2.7326066875    -0.2574255237
Bq         0.6708798165     2.8553532743     0.2268928168
Bq         0.6680107894     2.9768424236     0.2992264554
Bq         0.6756947521     2.9277437889     0.1054991192
Bq         0.6641688081     3.0013917410     0.3960901235
Bq         0.6795367334     2.9031944715     0.0086354511
Bq         0.6603268268     3.0259410584     0.4929537916
Bq         0.6833787147     2.8786451541    -0.0882282169
Bq         0.6564848454     3.0504903758     0.5898174597
Bq         0.6872206961     2.8540958368    -0.1850918850

1
2
3
4
5
6
7
8
9
10
11
12
13
14
15
16
17
18
19
20
21
22
23
24
25
26
27
28
29
30
31
32
33
34
35
36
37
38
39
40
41
42
43
44
45
46
47
48
49
50
51
52
53
54
55
56
57
58
59
60
61
62
63
64
65
66
67
68
69
70
71
72
73
74
75
76
77
78
79
80
81
82
83
84
85
86
87
88
89
90
91
92
93
94
95
96
97
98
99
100
101
102
103
104
105
106
107
108
109
110
111
112
113
114
115
116
117
118
119
120
121
122
123
124
125
126
127
128
129
130
131
132
133
134
135
136
137
138
139
140
141
142
143
144
145
146
147
148
149
150
151
152
153
154
155
156
157
158
159
160
161
162
163
164
165
166
167
168
169
170
171
172
173
174
175
176
177
178
179
180
181
182
183
184
185
186
187
188
189
190
191
192
193
194
195
196
197
198
199
200
201
202
203
204
205
206
207
208
209
210
211
212
213
214
215
216
217
218
219
220
221
222
223
224
225
226
227
228
229
230
231
232
233
234
235
236

