%nproc=8
%mem=1000MB
# rb3lyp/6-311+g** NMR geom=connectivity

Title

0 1
C    -4.0500558   -0.5771862    0.8136712
H    -5.0263804   -1.0082727    1.0024760
C    -3.9381552    0.6617804    0.2400876
H    -4.8252424    1.2338890   -0.0111295
C    -2.6768410    1.2433246    0.0057578
C    -1.4974121    0.5051527    0.2848253
C    -1.6508332   -0.7338728    0.9404026
H    -0.7713646   -1.2730967    1.2633753
C    -2.8898548   -1.2624035    1.1994307
H    -2.9683706   -2.2124563    1.7152676
C    -2.5773185    2.5963696   -0.4192930
H    -3.4870728    3.1412239   -0.6474055
C    -1.3741895    3.2147896   -0.4364030
H    -1.2997315    4.2742019   -0.6578144
C    -0.1719488    2.4994090   -0.1734588
C    -0.2043917    1.1018437    0.0192689
C     1.0513491    3.2042560   -0.0676222
H     1.0427344    4.2819499   -0.1896997
C     2.1942091    2.5487446    0.2579577
H     3.1168527    3.0912848    0.4334727
C     2.2216473    1.1336562    0.2934990
C     1.0486931    0.3945528    0.0302412
C     3.4483363    0.4614633    0.5573939
H     4.3095794    1.0606054    0.8334846
C     3.5427346   -0.8855926    0.4749463
H     4.4731467   -1.3939704    0.7038822
C     2.4490052   -1.6474447   -0.0196319
C     1.2150704   -1.0057258   -0.3013573
C     0.2531113   -1.7434440   -1.0216591
H    -0.6541356   -1.2535051   -1.3462847
C     0.4494193   -3.0628597   -1.3413779
H    -0.3083162   -3.5944309   -1.9054060
C     1.6251726   -3.7207967   -0.9552541
H     1.7670048   -4.7687404   -1.1927019
C     2.6109872   -3.0144177   -0.3183050
H     3.5525612   -3.4902813   -0.0646367
Bq         1.2803414509    -0.9299563144     0.1619001314
Bq         1.1607561595    -1.0098032677     0.4251943056
Bq         1.3202032146    -0.9033406633     0.0741354067
Bq         1.1208943957    -1.0364189188     0.5129590303
Bq         1.3600649784    -0.8767250122    -0.0136293180
Bq         1.0810326319    -1.0630345699     0.6007237550
Bq         1.3999267422    -0.8501093610    -0.1013940427
Bq         1.0411708681    -1.0896502210     0.6884884797
Bq         1.4397885060    -0.8234937099    -0.1891587674
Bq         1.2404796871    -0.9565719655     0.2496648561
Bq         1.1896114499    -0.8867946339     0.3616628313
Bq         1.2693349775    -0.8335633317     0.1861333819
Bq         1.1497496861    -0.9134102850     0.4494275560
Bq         1.3091967413    -0.8069476805     0.0983686572
Bq         1.1098879223    -0.9400259361     0.5371922807
Bq         1.3490585051    -0.7803320294     0.0106039325
Bq         1.0700261585    -0.9666415872     0.6249570055
Bq         1.3889202688    -0.7537163783    -0.0771607922
Bq         1.0301643948    -0.9932572383     0.7127217302
Bq         1.4287820326    -0.7271007272    -0.1649255170
Bq         1.2294732137    -0.8601789828     0.2738981066
Bq         1.1786049765    -0.7904016512     0.3858960818
Bq         1.2583285041    -0.7371703489     0.2103666324
Bq         1.1387432128    -0.8170173023     0.4736608065
Bq         1.2981902679    -0.7105546978     0.1226019076
Bq         1.0988814490    -0.8436329534     0.5614255312
Bq         1.3380520317    -0.6839390467     0.0348371829
Bq         1.0590196852    -0.8702486045     0.6491902559
Bq         1.3779137955    -0.6573233956    -0.0529275418
Bq         1.0191579214    -0.8968642556     0.7369549806
Bq         1.4177755593    -0.6307077445    -0.1406922665
Bq         1.2184667403    -0.7637860000     0.2981313571
Bq         1.1675985032    -0.6940086684     0.4101293322
Bq         1.2473220307    -0.6407773662     0.2345998828
Bq         1.1277367394    -0.7206243196     0.4978940569
Bq         1.2871837945    -0.6141617151     0.1468351581
Bq         1.0878749756    -0.7472399707     0.5856587817
Bq         1.3270455583    -0.5875460640     0.0590704334
Bq         1.0480132118    -0.7738556218     0.6734235064
Bq         1.3669073221    -0.5609304129    -0.0286942913
Bq         1.0081514480    -0.8004712729     0.7611882311
Bq         1.4067690859    -0.5343147618    -0.1164590160
Bq         1.2074602670    -0.6673930173     0.3223646075
Bq         1.1565920298    -0.5976156857     0.4343625827
Bq         1.2363155574    -0.5443843835     0.2588331333
Bq         1.1167302660    -0.6242313368     0.5221273074
Bq         1.2761773212    -0.5177687324     0.1710684086
Bq         1.0768685022    -0.6508469879     0.6098920321
Bq         1.3160390849    -0.4911530813     0.0833036838
Bq         1.0370067384    -0.6774626391     0.6976567568
Bq         1.3559008487    -0.4645374302    -0.0044610409
Bq         0.9971449746    -0.7040782902     0.7854214815
Bq         1.3957626125    -0.4379217791    -0.0922257656
Bq         1.1964537936    -0.5710000346     0.3465978580
Bq         1.1455855564    -0.5012227030     0.4585958332
Bq         1.2253090840    -0.4479914008     0.2830663837
Bq         1.1057237926    -0.5278383541     0.5463605579
Bq         1.2651708478    -0.4213757497     0.1953016590
Bq         1.0658620288    -0.5544540052     0.6341252826
Bq         1.3050326116    -0.3947600986     0.1075369343
Bq         1.0260002651    -0.5810696563     0.7218900073
Bq         1.3448943754    -0.3681444475     0.0197722096
Bq         0.9861385013    -0.6076853074     0.8096547320
Bq         1.3847561391    -0.3415287964    -0.0679925151
Bq         1.1854473202    -0.4746070519     0.3708311084
Bq         1.1345790830    -0.4048297203     0.4828290836
Bq         1.2143026106    -0.3515984181     0.3072996342
Bq         1.0947173193    -0.4314453714     0.5705938083
Bq         1.2541643744    -0.3249827670     0.2195349095
Bq         1.0548555555    -0.4580610225     0.6583585330
Bq         1.2940261382    -0.2983671159     0.1317701848
Bq         1.0149937917    -0.4846766736     0.7461232577
Bq         1.3338879020    -0.2717514648     0.0440054600
Bq         0.9751320279    -0.5112923247     0.8338879825
Bq         1.3737496658    -0.2451358137    -0.0437592647
Bq         1.1744408468    -0.3782140692     0.3950643589
Bq         1.1235726097    -0.3084367376     0.5070623341
Bq         1.2032961373    -0.2552054354     0.3315328846
Bq         1.0837108459    -0.3350523887     0.5948270588
Bq         1.2431579010    -0.2285897843     0.2437681599
Bq         1.0438490821    -0.3616680398     0.6825917835
Bq         1.2830196648    -0.2019741332     0.1560034352
Bq         1.0039873183    -0.3882836909     0.7703565082
Bq         1.3228814286    -0.1753584821     0.0682387105
Bq         0.9641255545    -0.4148993420     0.8581212329
Bq         1.3627431924    -0.1487428310    -0.0195260142
Bq         1.1634343735    -0.2818210865     0.4192976094
Bq         1.1125661363    -0.2120437549     0.5312955845
Bq         1.1922896639    -0.1588124527     0.3557661351
Bq         1.0727043725    -0.2386594060     0.6190603092
Bq         1.2321514277    -0.1321968016     0.2680014104
Bq         1.0328426087    -0.2652750571     0.7068250340
Bq         1.2720131915    -0.1055811505     0.1802366857
Bq         0.9929808449    -0.2918907082     0.7945897587
Bq         1.3118749552    -0.0789654993     0.0924719610
Bq         0.9531190812    -0.3185063593     0.8823544834
Bq         1.3517367190    -0.0523498482     0.0047072362
Bq         1.1524279001    -0.1854281038     0.4435308598
Bq         1.1015596629    -0.1156507722     0.5555288350
Bq         1.1812831905    -0.0624194700     0.3799993856
Bq         1.0616978991    -0.1422664233     0.6432935597
Bq         1.2211449543    -0.0358038189     0.2922346608
Bq         1.0218361354    -0.1688820744     0.7310582844
Bq         1.2610067181    -0.0091881677     0.2044699361
Bq         0.9819743716    -0.1954977255     0.8188230091
Bq         1.3008684819     0.0174274834     0.1167052114
Bq         0.9421126078    -0.2221133766     0.9065877338
Bq         1.3407302457     0.0440431345     0.0289404867
Bq         1.1414214267    -0.0890351211     0.4677641103
Bq         1.7429322049    -4.9352999078    -0.6147803003
Bq         1.8226557324    -4.8820686056    -0.7903097497
Bq         1.7030704411    -4.9619155589    -0.5270155756
Bq         1.8625174962    -4.8554529545    -0.8780744744
Bq         1.6632086773    -4.9885312100    -0.4392508509
Bq         1.9023792600    -4.8288373034    -0.9658391991
Bq         1.6233469135    -5.0151468611    -0.3514861262
Bq         1.9422410238    -4.8022216522    -1.0536039239
Bq         1.5834851497    -5.0417625122    -0.2637214014
Bq         1.9821027876    -4.7756060011    -1.1413686486
Bq         1.7827939686    -4.9086842567    -0.7025450250
Bq         1.7319257315    -4.8389069251    -0.5905470498
Bq         1.8116492591    -4.7856756229    -0.7660764993
Bq         1.6920639677    -4.8655225762    -0.5027823251
Bq         1.8515110228    -4.7590599717    -0.8538412240
Bq         1.6522022039    -4.8921382273    -0.4150176004
Bq         1.8913727866    -4.7324443206    -0.9416059487
Bq         1.6123404401    -4.9187538784    -0.3272528757
Bq         1.9312345504    -4.7058286695    -1.0293706734
Bq         1.5724786763    -4.9453695295    -0.2394881510
Bq         1.9710963142    -4.6792130184    -1.1171353981
Bq         1.7717874953    -4.8122912740    -0.6783117745
Bq         1.7209192581    -4.7425139424    -0.5663137994
Bq         1.8006427857    -4.6892826401    -0.7418432488
Bq         1.6810574943    -4.7691295935    -0.4785490747
Bq         1.8405045495    -4.6626669890    -0.8296079735
Bq         1.6411957305    -4.7957452446    -0.3907843499
Bq         1.8803663133    -4.6360513379    -0.9173726982
Bq         1.6013339667    -4.8223608957    -0.3030196252
Bq         1.9202280770    -4.6094356868    -1.0051374229
Bq         1.5614722030    -4.8489765468    -0.2152549005
Bq         1.9600898408    -4.5828200357    -1.0929021476
Bq         1.7607810219    -4.7158982912    -0.6540785241
Bq         1.7099127847    -4.6461209596    -0.5420805489
Bq         1.7896363123    -4.5928896574    -0.7176099983
Bq         1.6700510209    -4.6727366108    -0.4543158242
Bq         1.8294980761    -4.5662740063    -0.8053747231
Bq         1.6301892572    -4.6993522619    -0.3665510995
Bq         1.8693598399    -4.5396583552    -0.8931394478
Bq         1.5903274934    -4.7259679130    -0.2787863748
Bq         1.9092216037    -4.5130427041    -0.9809041725
Bq         1.5504657296    -4.7525835641    -0.1910216501
Bq         1.9490833675    -4.4864270530    -1.0686688972
Bq         1.7497745485    -4.6195053085    -0.6298452736
Bq         1.6989063114    -4.5497279769    -0.5178472985
Bq         1.7786298389    -4.4964966747    -0.6933767479
Bq         1.6590445476    -4.5763436280    -0.4300825737
Bq         1.8184916027    -4.4698810236    -0.7811414726
Bq         1.6191827838    -4.6029592791    -0.3423178490
Bq         1.8583533665    -4.4432653725    -0.8689061973
Bq         1.5793210200    -4.6295749303    -0.2545531243
Bq         1.8982151303    -4.4166497214    -0.9566709220
Bq         1.5394592562    -4.6561905814    -0.1667883996
Bq         1.9380768941    -4.3900340703    -1.0444356467
Bq         1.7387680752    -4.5231123258    -0.6056120232
Bq         1.6878998380    -4.4533349942    -0.4936140480
Bq         1.7676233656    -4.4001036920    -0.6691434974
Bq         1.6480380742    -4.4799506453    -0.4058493233
Bq         1.8074851294    -4.3734880409    -0.7569082221
Bq         1.6081763104    -4.5065662964    -0.3180845986
Bq         1.8473468931    -4.3468723898    -0.8446729468
Bq         1.5683145466    -4.5331819475    -0.2303198739
Bq         1.8872086569    -4.3202567387    -0.9324376716
Bq         1.5284527828    -4.5597975986    -0.1425551491
Bq         1.9270704207    -4.2936410876    -1.0202023963
Bq         1.7277616018    -4.4267193431    -0.5813787727
Bq         1.6768933646    -4.3569420115    -0.4693807975
Bq         1.7566168922    -4.3037107093    -0.6449102470
Bq         1.6370316008    -4.3835576626    -0.3816160728
Bq         1.7964786560    -4.2770950582    -0.7326749717
Bq         1.5971698370    -4.4101733137    -0.2938513481
Bq         1.8363404198    -4.2504794071    -0.8204396964
Bq         1.5573080733    -4.4367889648    -0.2060866234
Bq         1.8762021836    -4.2238637560    -0.9082044211
Bq         1.5174463095    -4.4634046159    -0.1183218987
Bq         1.9160639473    -4.1972481049    -0.9959691458
Bq         1.7167551284    -4.3303263604    -0.5571455223
Bq         1.6658868912    -4.2605490288    -0.4451475471
Bq         1.7456104188    -4.2073177266    -0.6206769965
Bq         1.6260251275    -4.2871646799    -0.3573828224
Bq         1.7854721826    -4.1807020755    -0.7084417212
Bq         1.5861633637    -4.3137803310    -0.2696180977
Bq         1.8253339464    -4.1540864244    -0.7962064459
Bq         1.5463015999    -4.3403959821    -0.1818533729
Bq         1.8651957102    -4.1274707733    -0.8839711706
Bq         1.5064398361    -4.3670116332    -0.0940886482
Bq         1.9050574740    -4.1008551222    -0.9717358954
Bq         1.7057486550    -4.2339333777    -0.5329122718
Bq         1.6548804179    -4.1641560461    -0.4209142966
Bq         1.7346039454    -4.1109247439    -0.5964437461
Bq         1.6150186541    -4.1907716972    -0.3331495719

1
2
3
4
5
6
7
8
9
10
11
12
13
14
15
16
17
18
19
20
21
22
23
24
25
26
27
28
29
30
31
32
33
34
35
36
37
38
39
40
41
42
43
44
45
46
47
48
49
50
51
52
53
54
55
56
57
58
59
60
61
62
63
64
65
66
67
68
69
70
71
72
73
74
75
76
77
78
79
80
81
82
83
84
85
86
87
88
89
90
91
92
93
94
95
96
97
98
99
100
101
102
103
104
105
106
107
108
109
110
111
112
113
114
115
116
117
118
119
120
121
122
123
124
125
126
127
128
129
130
131
132
133
134
135
136
137
138
139
140
141
142
143
144
145
146
147
148
149
150
151
152
153
154
155
156
157
158
159
160
161
162
163
164
165
166
167
168
169
170
171
172
173
174
175
176
177
178
179
180
181
182
183
184
185
186
187
188
189
190
191
192
193
194
195
196
197
198
199
200
201
202
203
204
205
206
207
208
209
210
211
212
213
214
215
216
217
218
219
220
221
222
223
224
225
226
227
228
229
230
231
232
233
234
235
236

