%nproc=8
%mem=1000MB
# rb3lyp/6-311+g** NMR geom=connectivity

Title

0 1
C    -4.0500558   -0.5771862    0.8136712
H    -5.0263804   -1.0082727    1.0024760
C    -3.9381552    0.6617804    0.2400876
H    -4.8252424    1.2338890   -0.0111295
C    -2.6768410    1.2433246    0.0057578
C    -1.4974121    0.5051527    0.2848253
C    -1.6508332   -0.7338728    0.9404026
H    -0.7713646   -1.2730967    1.2633753
C    -2.8898548   -1.2624035    1.1994307
H    -2.9683706   -2.2124563    1.7152676
C    -2.5773185    2.5963696   -0.4192930
H    -3.4870728    3.1412239   -0.6474055
C    -1.3741895    3.2147896   -0.4364030
H    -1.2997315    4.2742019   -0.6578144
C    -0.1719488    2.4994090   -0.1734588
C    -0.2043917    1.1018437    0.0192689
C     1.0513491    3.2042560   -0.0676222
H     1.0427344    4.2819499   -0.1896997
C     2.1942091    2.5487446    0.2579577
H     3.1168527    3.0912848    0.4334727
C     2.2216473    1.1336562    0.2934990
C     1.0486931    0.3945528    0.0302412
C     3.4483363    0.4614633    0.5573939
H     4.3095794    1.0606054    0.8334846
C     3.5427346   -0.8855926    0.4749463
H     4.4731467   -1.3939704    0.7038822
C     2.4490052   -1.6474447   -0.0196319
C     1.2150704   -1.0057258   -0.3013573
C     0.2531113   -1.7434440   -1.0216591
H    -0.6541356   -1.2535051   -1.3462847
C     0.4494193   -3.0628597   -1.3413779
H    -0.3083162   -3.5944309   -1.9054060
C     1.6251726   -3.7207967   -0.9552541
H     1.7670048   -4.7687404   -1.1927019
C     2.6109872   -3.0144177   -0.3183050
H     3.5525612   -3.4902813   -0.0646367
Bq         0.8721200641    -0.5443843835     0.0934195828
Bq         0.7525347728    -0.6242313368     0.3567137569
Bq         0.9119818279    -0.5177687324     0.0056548580
Bq         0.7126730090    -0.6508469879     0.4444784816
Bq         0.9518435917    -0.4911530813    -0.0821098667
Bq         0.6728112452    -0.6774626391     0.5322432063
Bq         0.9917053555    -0.4645374302    -0.1698745914
Bq         0.6329494814    -0.7040782902     0.6200079310
Bq         1.0315671193    -0.4379217791    -0.2576393161
Bq         0.8322583003    -0.5710000346     0.1811843075
Bq         0.7813900632    -0.5012227030     0.2931822826
Bq         0.8611135907    -0.4479914008     0.1176528332
Bq         0.7415282994    -0.5278383541     0.3809470074
Bq         0.9009753545    -0.4213757497     0.0298881085
Bq         0.7016665356    -0.5544540052     0.4687117321
Bq         0.9408371183    -0.3947600986    -0.0578766162
Bq         0.6618047718    -0.5810696563     0.5564764568
Bq         0.9806988821    -0.3681444475    -0.1456413409
Bq         0.6219430080    -0.6076853074     0.6442411815
Bq         1.0205606459    -0.3415287964    -0.2334060656
Bq         0.8212518270    -0.4746070519     0.2054175579
Bq         0.7703835898    -0.4048297203     0.3174155331
Bq         0.8501071174    -0.3515984181     0.1418860837
Bq         0.7305218260    -0.4314453714     0.4051802578
Bq         0.8899688812    -0.3249827670     0.0541213590
Bq         0.6906600622    -0.4580610225     0.4929449825
Bq         0.9298306449    -0.2983671159    -0.0336433658
Bq         0.6507982984    -0.4846766736     0.5807097072
Bq         0.9696924087    -0.2717514648    -0.1214080905
Bq         0.6109365346    -0.5112923247     0.6684744319
Bq         1.0095541725    -0.2451358137    -0.2091728152
Bq         0.8102453536    -0.3782140692     0.2296508084
Bq         0.7593771164    -0.3084367376     0.3416487836
Bq         0.8391006440    -0.2552054354     0.1661193341
Bq         0.7195153526    -0.3350523887     0.4294135083
Bq         0.8789624078    -0.2285897843     0.0783546094
Bq         0.6796535888    -0.3616680398     0.5171782330
Bq         0.9188241716    -0.2019741332    -0.0094101153
Bq         0.6397918251    -0.3882836909     0.6049429577
Bq         0.9586859354    -0.1753584821    -0.0971748400
Bq         0.5999300613    -0.4148993420     0.6927076824
Bq         0.9985476991    -0.1487428310    -0.1849395647
Bq         0.7992388802    -0.2818210865     0.2538840588
Bq         0.7483706431    -0.2120437549     0.3658820340
Bq         0.8280941706    -0.1588124527     0.1903525846
Bq         0.7085088793    -0.2386594060     0.4536467587
Bq         0.8679559344    -0.1321968016     0.1025878599
Bq         0.6686471155    -0.2652750571     0.5414114834
Bq         0.9078176982    -0.1055811505     0.0148231352
Bq         0.6287853517    -0.2918907082     0.6291762081
Bq         0.9476794620    -0.0789654993    -0.0729415896
Bq         0.5889235879    -0.3185063593     0.7169409329
Bq         0.9875412258    -0.0523498482    -0.1607063143
Bq         0.7882324068    -0.1854281038     0.2781173093
Bq         0.7373641697    -0.1156507722     0.3901152845
Bq         0.8170876973    -0.0624194700     0.2145858350
Bq         0.6975024059    -0.1422664233     0.4778800092
Bq         0.8569494610    -0.0358038189     0.1268211103
Bq         0.6576406421    -0.1688820744     0.5656447339
Bq         0.8968112248    -0.0091881677     0.0390563856
Bq         0.6177788783    -0.1954977255     0.6534094586
Bq         0.9366729886     0.0174274834    -0.0487083391
Bq         0.5779171145    -0.2221133766     0.7411741833
Bq         0.9765347524     0.0440431345    -0.1364730638
Bq         0.7772259335    -0.0890351211     0.3023505598
Bq         1.3787367116    -4.9352999078    -0.7801938508
Bq         1.4584602392    -4.8820686056    -0.9557233002
Bq         1.3388749478    -4.9619155589    -0.6924291261
Bq         1.4983220030    -4.8554529545    -1.0434880249
Bq         1.2990131840    -4.9885312100    -0.6046644014
Bq         1.5381837667    -4.8288373034    -1.1312527497
Bq         1.2591514202    -5.0151468611    -0.5168996767
Bq         1.5780455305    -4.8022216522    -1.2190174744
Bq         1.2192896564    -5.0417625122    -0.4291349520
Bq         1.6179072943    -4.7756060011    -1.3067821991
Bq         1.4185984754    -4.9086842567    -0.8679585755
Bq         1.3677302382    -4.8389069251    -0.7559606003
Bq         1.4474537658    -4.7856756229    -0.9314900498
Bq         1.3278684744    -4.8655225762    -0.6681958756
Bq         1.4873155296    -4.7590599717    -1.0192547745
Bq         1.2880067107    -4.8921382273    -0.5804311509
Bq         1.5271772934    -4.7324443206    -1.1070194992
Bq         1.2481449469    -4.9187538784    -0.4926664262
Bq         1.5670390572    -4.7058286695    -1.1947842239
Bq         1.2082831831    -4.9453695295    -0.4049017015
Bq         1.6069008210    -4.6792130184    -1.2825489486
Bq         1.4075920020    -4.8122912740    -0.8437253251
Bq         1.3567237649    -4.7425139424    -0.7317273499
Bq         1.4364472924    -4.6892826401    -0.9072567993
Bq         1.3168620011    -4.7691295935    -0.6439626252
Bq         1.4763090562    -4.6626669890    -0.9950215240
Bq         1.2770002373    -4.7957452446    -0.5561979005
Bq         1.5161708200    -4.6360513379    -1.0827862487
Bq         1.2371384735    -4.8223608957    -0.4684331757
Bq         1.5560325838    -4.6094356868    -1.1705509734
Bq         1.1972767097    -4.8489765468    -0.3806684510
Bq         1.5958943476    -4.5828200357    -1.2583156982
Bq         1.3965855286    -4.7158982912    -0.8194920746
Bq         1.3457172915    -4.6461209596    -0.7074940994
Bq         1.4254408191    -4.5928896574    -0.8830235489
Bq         1.3058555277    -4.6727366108    -0.6197293747
Bq         1.4653025828    -4.5662740063    -0.9707882736
Bq         1.2659937639    -4.6993522619    -0.5319646500
Bq         1.5051643466    -4.5396583552    -1.0585529983
Bq         1.2261320001    -4.7259679130    -0.4441999253
Bq         1.5450261104    -4.5130427041    -1.1463177230
Bq         1.1862702363    -4.7525835641    -0.3564352006
Bq         1.5848878742    -4.4864270530    -1.2340824477
Bq         1.3855790553    -4.6195053085    -0.7952588241
Bq         1.3347108181    -4.5497279769    -0.6832608490
Bq         1.4144343457    -4.4964966747    -0.8587902984
Bq         1.2948490543    -4.5763436280    -0.5954961243
Bq         1.4542961095    -4.4698810236    -0.9465550231
Bq         1.2549872905    -4.6029592791    -0.5077313995
Bq         1.4941578733    -4.4432653725    -1.0343197478
Bq         1.2151255267    -4.6295749303    -0.4199666748
Bq         1.5340196370    -4.4166497214    -1.1220844725
Bq         1.1752637630    -4.6561905814    -0.3322019501
Bq         1.5738814008    -4.3900340703    -1.2098491972
Bq         1.3745725819    -4.5231123258    -0.7710255737
Bq         1.3237043447    -4.4533349942    -0.6590275985
Bq         1.4034278723    -4.4001036920    -0.8345570479
Bq         1.2838425809    -4.4799506453    -0.5712628738
Bq         1.4432896361    -4.3734880409    -0.9223217727
Bq         1.2439808172    -4.5065662964    -0.4834981491
Bq         1.4831513999    -4.3468723898    -1.0100864974
Bq         1.2041190534    -4.5331819475    -0.3957334244
Bq         1.5230131637    -4.3202567387    -1.0978512221
Bq         1.1642572896    -4.5597975986    -0.3079686997
Bq         1.5628749275    -4.2936410876    -1.1856159468
Bq         1.3635661085    -4.4267193431    -0.7467923232
Bq         1.3126978714    -4.3569420115    -0.6347943481
Bq         1.3924213989    -4.3037107093    -0.8103237975
Bq         1.2728361076    -4.3835576626    -0.5470296233
Bq         1.4322831627    -4.2770950582    -0.8980885222
Bq         1.2329743438    -4.4101733137    -0.4592648986
Bq         1.4721449265    -4.2504794071    -0.9858532469
Bq         1.1931125800    -4.4367889648    -0.3715001739
Bq         1.5120066903    -4.2238637560    -1.0736179716
Bq         1.1532508162    -4.4634046159    -0.2837354492
Bq         1.5518684541    -4.1972481049    -1.1613826963
Bq         1.3525596352    -4.3303263604    -0.7225590728
Bq         1.3016913980    -4.2605490288    -0.6105610976
Bq         1.3814149256    -4.2073177266    -0.7860905470
Bq         1.2618296342    -4.2871646799    -0.5227963729
Bq         1.4212766894    -4.1807020755    -0.8738552717
Bq         1.2219678704    -4.3137803310    -0.4350316482
Bq         1.4611384531    -4.1540864244    -0.9616199964
Bq         1.1821061066    -4.3403959821    -0.3472669235
Bq         1.5010002169    -4.1274707733    -1.0493847212
Bq         1.1422443428    -4.3670116332    -0.2595021987
Bq         1.5408619807    -4.1008551222    -1.1371494459
Bq         1.3415531618    -4.2339333777    -0.6983258223
Bq         1.2906849246    -4.1641560461    -0.5863278471
Bq         1.3704084522    -4.1109247439    -0.7618572966
Bq         1.2508231608    -4.1907716972    -0.4985631224
Bq         1.4102702160    -4.0843090928    -0.8496220213
Bq         1.2109613970    -4.2173873483    -0.4107983977
Bq         1.4501319798    -4.0576934417    -0.9373867460
Bq         1.1710996333    -4.2440029994    -0.3230336730
Bq         1.4899937436    -4.0310777905    -1.0251514707
Bq         1.1312378695    -4.2706186505    -0.2352689483
Bq         1.5298555073    -4.0044621394    -1.1129161954
Bq         1.3305466884    -4.1375403950    -0.6740925719
Bq         1.2796784512    -4.0677630634    -0.5620945967
Bq         1.3594019788    -4.0145317612    -0.7376240461
Bq         1.2398166875    -4.0943787145    -0.4743298720
Bq         1.3992637426    -3.9879161100    -0.8253887708
Bq         1.1999549237    -4.1209943656    -0.3865651473
Bq         1.4391255064    -3.9613004589    -0.9131534955
Bq         1.1600931599    -4.1476100167    -0.2988004225
Bq         1.4789872702    -3.9346848078    -1.0009182202
Bq         1.1202313961    -4.1742256678    -0.2110356978
Bq         1.5188490340    -3.9080691567    -1.0886829450
Bq         1.3195402150    -4.0411474123    -0.6498593214
Bq         1.2686719779    -3.9713700807    -0.5378613462
Bq         1.3483955055    -3.9181387784    -0.7133907956
Bq         1.2288102141    -3.9979857318    -0.4500966215
Bq         1.3882572692    -3.8915231273    -0.8011555204
Bq         1.1889484503    -4.0246013829    -0.3623318968
Bq         1.4281190330    -3.8649074762    -0.8889202451
Bq         1.1490866865    -4.0512170340    -0.2745671721
Bq         1.4679807968    -3.8382918251    -0.9766849698
Bq         1.1092249227    -4.0778326851    -0.1868024474
Bq         1.5078425606    -3.8116761740    -1.0644496945
Bq         1.3085337417    -3.9447544296    -0.6256260709
Bq         1.2576655045    -3.8749770979    -0.5136280958
Bq         1.3373890321    -3.8217457957    -0.6891575452
Bq         1.2178037407    -3.9015927491    -0.4258633711
Bq         1.3772507959    -3.7951301446    -0.7769222699
Bq         1.1779419769    -3.9282084002    -0.3380986463
Bq         1.4171125597    -3.7685144935    -0.8646869946
Bq         1.1380802131    -3.9548240513    -0.2503339216
Bq         1.4569743234    -3.7418988424    -0.9524517193
Bq         1.0982184494    -3.9814397024    -0.1625691969
Bq         1.4968360872    -3.7152831913    -1.0402164440
Bq         1.2975272683    -3.8483614468    -0.6013928205
Bq         1.2466590311    -3.7785841152    -0.4893948453
Bq         1.3263825587    -3.7253528130    -0.6649242947
Bq         1.2067972673    -3.8051997663    -0.4016301206

1
2
3
4
5
6
7
8
9
10
11
12
13
14
15
16
17
18
19
20
21
22
23
24
25
26
27
28
29
30
31
32
33
34
35
36
37
38
39
40
41
42
43
44
45
46
47
48
49
50
51
52
53
54
55
56
57
58
59
60
61
62
63
64
65
66
67
68
69
70
71
72
73
74
75
76
77
78
79
80
81
82
83
84
85
86
87
88
89
90
91
92
93
94
95
96
97
98
99
100
101
102
103
104
105
106
107
108
109
110
111
112
113
114
115
116
117
118
119
120
121
122
123
124
125
126
127
128
129
130
131
132
133
134
135
136
137
138
139
140
141
142
143
144
145
146
147
148
149
150
151
152
153
154
155
156
157
158
159
160
161
162
163
164
165
166
167
168
169
170
171
172
173
174
175
176
177
178
179
180
181
182
183
184
185
186
187
188
189
190
191
192
193
194
195
196
197
198
199
200
201
202
203
204
205
206
207
208
209
210
211
212
213
214
215
216
217
218
219
220
221
222
223
224
225
226
227
228
229
230
231
232
233
234
235
236

