%nproc=8
%mem=1000MB
# rb3lyp/6-311+g** NMR geom=connectivity

Title

0 1
C    -4.0500558   -0.5771862    0.8136712
H    -5.0263804   -1.0082727    1.0024760
C    -3.9381552    0.6617804    0.2400876
H    -4.8252424    1.2338890   -0.0111295
C    -2.6768410    1.2433246    0.0057578
C    -1.4974121    0.5051527    0.2848253
C    -1.6508332   -0.7338728    0.9404026
H    -0.7713646   -1.2730967    1.2633753
C    -2.8898548   -1.2624035    1.1994307
H    -2.9683706   -2.2124563    1.7152676
C    -2.5773185    2.5963696   -0.4192930
H    -3.4870728    3.1412239   -0.6474055
C    -1.3741895    3.2147896   -0.4364030
H    -1.2997315    4.2742019   -0.6578144
C    -0.1719488    2.4994090   -0.1734588
C    -0.2043917    1.1018437    0.0192689
C     1.0513491    3.2042560   -0.0676222
H     1.0427344    4.2819499   -0.1896997
C     2.1942091    2.5487446    0.2579577
H     3.1168527    3.0912848    0.4334727
C     2.2216473    1.1336562    0.2934990
C     1.0486931    0.3945528    0.0302412
C     3.4483363    0.4614633    0.5573939
H     4.3095794    1.0606054    0.8334846
C     3.5427346   -0.8855926    0.4749463
H     4.4731467   -1.3939704    0.7038822
C     2.4490052   -1.6474447   -0.0196319
C     1.2150704   -1.0057258   -0.3013573
C     0.2531113   -1.7434440   -1.0216591
H    -0.6541356   -1.2535051   -1.3462847
C     0.4494193   -3.0628597   -1.3413779
H    -0.3083162   -3.5944309   -1.9054060
C     1.6251726   -3.7207967   -0.9552541
H     1.7670048   -4.7687404   -1.1927019
C     2.6109872   -3.0144177   -0.3183050
H     3.5525612   -3.4902813   -0.0646367
Bq         3.1599633933    -2.0398702926     0.1327277423
Bq         3.0315690717    -2.1110085878     0.6106966127
Bq         3.0021991569    -2.0262535528     0.7200309264
Bq         3.0535568855    -1.9977982347     0.5288433782
Bq         2.9765202925    -2.0404812118     0.8156247005
Bq         3.0792357498    -1.9835705757     0.4332496041
Bq         2.9508414282    -2.0547088708     0.9112184746
Bq         3.1049146142    -1.9693429167     0.3376558300
Bq         2.9251625639    -2.0689365299     1.0068122487
Bq         3.1305934785    -1.9551152576     0.2420620559
Bq         2.8994836996    -2.0831641889     1.1024060228
Bq         3.1562723428    -1.9408875986     0.1464682818
Bq         3.0278780212    -2.0120258937     0.6244371523
Bq         2.9985081063    -1.9272708587     0.7337714659
Bq         3.0498658350    -1.8988155407     0.5425839177
Bq         2.9728292420    -1.9414985178     0.8293652400
Bq         3.0755446993    -1.8845878817     0.4469901437
Bq         2.9471503777    -1.9557261768     0.9249590141
Bq         3.1012235636    -1.8703602226     0.3513963696
Bq         2.9214715134    -1.9699538358     1.0205527882
Bq         3.1269024279    -1.8561325636     0.2558025955
Bq         2.8957926490    -1.9841814949     1.1161465623
Bq         3.1525812923    -1.8419049046     0.1602088214
Bq         3.0241869707    -1.9130431997     0.6381776918
Bq         2.9948170558    -1.8282881647     0.7475120055
Bq         3.0461747844    -1.7998328466     0.5563244573
Bq         2.9691381915    -1.8425158237     0.8431057796
Bq         3.0718536488    -1.7856051876     0.4607306832
Bq         2.9434593272    -1.8567434828     0.9386995537
Bq         3.0975325131    -1.7713775286     0.3651369091
Bq         2.9177804628    -1.8709711418     1.0342933278
Bq         3.1232113774    -1.7571498696     0.2695431350
Bq         2.8921015985    -1.8851988008     1.1298871019
Bq         3.1488902417    -1.7429222105     0.1739493609
Bq         3.0204959201    -1.8140605057     0.6519182314
Bq         2.9911260053    -1.7293054707     0.7612525451
Bq         3.0424837339    -1.7008501526     0.5700649969
Bq         2.9654471409    -1.7435331297     0.8568463192
Bq         3.0681625982    -1.6866224936     0.4744712228
Bq         2.9397682766    -1.7577607887     0.9524400932
Bq         3.0938414626    -1.6723948346     0.3788774487
Bq         2.9140894123    -1.7719884478     1.0480338673
Bq         3.1195203269    -1.6581671755     0.2832836746
Bq         2.8884105480    -1.7862161068     1.1436276414
Bq         3.1451991912    -1.6439395165     0.1876899005
Bq         3.0168048696    -1.7150778116     0.6656587710
Bq         2.9874349547    -1.6303227766     0.7749930846
Bq         3.0387926834    -1.6018674586     0.5838055364
Bq         2.9617560904    -1.6445504357     0.8705868587
Bq         3.0644715477    -1.5876397995     0.4882117623
Bq         2.9360772261    -1.6587780947     0.9661806328
Bq         3.0901504120    -1.5734121405     0.3926179882
Bq         2.9103983618    -1.6730057537     1.0617744069
Bq         3.1158292763    -1.5591844815     0.2970242141
Bq         2.8847194974    -1.6872334127     1.1573681810
Bq         3.1415081407    -1.5449568225     0.2014304400
Bq         3.0131138191    -1.6160951176     0.6793993105
Bq         2.9837439042    -1.5313400826     0.7887336242
Bq         3.0351016328    -1.5028847645     0.5975460760
Bq         2.9580650399    -1.5455677416     0.8843273983
Bq         3.0607804972    -1.4886571055     0.5019523019
Bq         2.9323861755    -1.5597954007     0.9799211724
Bq         3.0864593615    -1.4744294465     0.4063585278
Bq         2.9067073112    -1.5740230597     1.0755149465
Bq         3.1121382258    -1.4602017875     0.3107647537
Bq         2.8810284469    -1.5882507187     1.1711087206
Bq         3.1378170901    -1.4459741284     0.2151709796
Bq         3.0094227685    -1.5171124236     0.6931398501
Bq         2.9800528537    -1.4323573886     0.8024741637
Bq         3.0314105823    -1.4039020705     0.6112866155
Bq         2.9543739893    -1.4465850476     0.8980679378
Bq         3.0570894466    -1.3896744115     0.5156928414
Bq         2.9286951250    -1.4608127066     0.9936617119
Bq         3.0827683109    -1.3754467524     0.4200990674
Bq         2.9030162607    -1.4750403656     1.0892554860
Bq         3.1084471753    -1.3612190934     0.3245052933
Bq         2.8773373964    -1.4892680247     1.1848492601
Bq         3.1341260396    -1.3469914344     0.2289115192
Bq         3.0057317180    -1.4181297295     0.7068803896
Bq         2.9763618031    -1.3333746945     0.8162147033
Bq         3.0277195318    -1.3049193765     0.6250271551
Bq         2.9506829388    -1.3476023536     0.9118084774
Bq         3.0533983961    -1.2906917174     0.5294333810
Bq         2.9250040745    -1.3618300126     1.0074022515
Bq         3.0790772604    -1.2764640584     0.4338396069
Bq         2.8993252102    -1.3760576716     1.1029960256
Bq         3.1047561247    -1.2622363994     0.3382458328
Bq         2.8736463458    -1.3902853306     1.1985897997
Bq         3.1304349891    -1.2480087404     0.2426520587
Bq         3.0020406674    -1.3191470355     0.7206209292
Bq         2.9726707526    -1.2343920005     0.8299552429
Bq         3.0240284812    -1.2059366824     0.6387676947
Bq         2.9469918883    -1.2486196595     0.9255490169
Bq         3.0497073456    -1.1917090234     0.5431739206
Bq         2.9213130239    -1.2628473185     1.0211427910
Bq         3.0753862099    -1.1774813644     0.4475801465
Bq         2.8956341596    -1.2770749776     1.1167365651
Bq         3.1010650742    -1.1632537054     0.3519863724
Bq         2.8699552953    -1.2913026366     1.2123303392
Bq         3.1267439385    -1.1490260463     0.2563925983
Bq         2.9983496169    -1.2201643415     0.7343614688
Bq         2.9689797021    -1.1354093065     0.8436957824
Bq         3.0203374307    -1.1069539884     0.6525082342
Bq         2.9433008377    -1.1496369655     0.9392895565
Bq         3.0460162950    -1.0927263294     0.5569144601
Bq         2.9176219734    -1.1638646245     1.0348833306
Bq         3.0716951593    -1.0784986703     0.4613206860
Bq         2.8919431091    -1.1780922835     1.1304771047
Bq         3.0973740237    -1.0642710113     0.3657269119
Bq         2.8662642448    -1.1923199426     1.2260708788
Bq         3.1230528880    -1.0500433523     0.2701331378
Bq         2.9946585664    -1.1211816474     0.7481020083
Bq         2.9652886515    -1.0364266124     0.8574363220
Bq         3.0166463802    -1.0079712944     0.6662487738
Bq         2.9396097872    -1.0506542714     0.9530300961
Bq         3.0423252445    -0.9937436353     0.5706549997
Bq         2.9139309229    -1.0648819305     1.0486238702
Bq         3.0680041088    -0.9795159763     0.4750612256
Bq         2.8882520586    -1.0791095895     1.1442176443
Bq         3.0936829731    -0.9652883173     0.3794674515
Bq         2.8625731942    -1.0933372485     1.2398114183
Bq         3.1193618375    -0.9510606583     0.2838736774
Bq         2.9909675158    -1.0221989534     0.7618425479
Bq         2.9615976010    -0.9374439184     0.8711768615
Bq         3.0129553296    -0.9089886003     0.6799893133
Bq         2.9359187367    -0.9516715774     0.9667706356
Bq         3.0386341940    -0.8947609413     0.5843955392
Bq         2.9102398723    -0.9658992364     1.0623644097
Bq         3.0643130583    -0.8805332823     0.4888017651
Bq         2.8845610080    -0.9801268955     1.1579581838
Bq         3.0899919226    -0.8663056232     0.3932079911
Bq         2.8588821437    -0.9943545545     1.2535519579
Bq         3.1156707869    -0.8520779642     0.2976142170
Bq         2.9872764653    -0.9232162594     0.7755830874
Bq         2.9579065504    -0.8384612243     0.8849174011
Bq         3.0092642791    -0.8100059063     0.6937298529
Bq         2.9322276861    -0.8526888834     0.9805111752
Bq         3.0349431434    -0.7957782473     0.5981360788
Bq         2.9065488218    -0.8669165424     1.0761049493
Bq         3.0606220077    -0.7815505882     0.5025423047
Bq         2.8808699575    -0.8811442014     1.1716987234
Bq         3.0863008721    -0.7673229292     0.4069485306
Bq         2.8551910932    -0.8953718605     1.2672924975
Bq         3.1119797364    -0.7530952702     0.3113547565
Bq         2.9835854148    -0.8242335653     0.7893236270
Bq         2.9542154999    -0.7394785303     0.8986579406
Bq         3.0055732286    -0.7110232123     0.7074703925
Bq         2.9285366356    -0.7537061893     0.9942517147
Bq         3.0312520929    -0.6967955532     0.6118766184
Bq         2.9028577713    -0.7679338484     1.0898454888
Bq         3.0569309572    -0.6825678942     0.5162828443
Bq         2.8771789069    -0.7821615074     1.1854392629
Bq         3.0826098215    -0.6683402352     0.4206890702
Bq         2.8515000426    -0.7963891664     1.2810330370
Bq         3.1082886858    -0.6541125761     0.3250952961
Bq         2.9798943642    -0.7252508713     0.8030641666
Bq         2.9505244494    -0.6404958363     0.9123984802
Bq         3.0018821780    -0.6120405182     0.7212109320
Bq         2.9248455851    -0.6547234953     1.0079922543
Bq         3.0275610423    -0.5978128592     0.6256171579
Bq         2.8991667207    -0.6689511543     1.1035860284
Bq         3.0532399067    -0.5835852002     0.5300233838
Bq         2.8734878564    -0.6831788134     1.1991798025
Bq         3.0789187710    -0.5693575411     0.4344296097
Bq         2.8478089921    -0.6974064724     1.2947735766
Bq         3.1045976353    -0.5551298821     0.3388358356
Bq         2.9762033137    -0.6262681772     0.8168047061
Bq         2.9468333988    -0.5415131422     0.9261390198
Bq         2.9981911275    -0.5130578242     0.7349514716
Bq         2.9211545345    -0.5557408013     1.0217327939
Bq         3.0238699918    -0.4988301652     0.6393576975
Bq         2.8954756702    -0.5699684603     1.1173265680
Bq         3.0495488561    -0.4846025061     0.5437639234
Bq         2.8697968059    -0.5841961193     1.2129203420
Bq         3.0752277205    -0.4703748471     0.4481701493
Bq         2.8441179416    -0.5984237784     1.3085141161
Bq         3.1009065848    -0.4561471881     0.3525763752
Bq         2.9725122632    -0.5272854832     0.8305452457
Bq         2.9431423483    -0.4425304482     0.9398795593
Bq         2.9945000770    -0.4140751301     0.7486920111
Bq         2.9174634840    -0.4567581072     1.0354733334
Bq         3.0201789413    -0.3998474711     0.6530982370
Bq         2.8917846197    -0.4709857663     1.1310671075
Bq         3.0458578056    -0.3856198121     0.5575044629
Bq         2.8661057553    -0.4852134253     1.2266608816
Bq         3.0715366699    -0.3713921531     0.4619106888
Bq         2.8404268910    -0.4994410843     1.3222546557
Bq         3.0972155342    -0.3571644940     0.3663169148
Bq         2.9688212126    -0.4283027892     0.8442857852
Bq         2.9394512978    -0.3435477542     0.9536200989
Bq         2.9908090264    -0.3150924361     0.7624325507
Bq         2.9137724334    -0.3577754132     1.0492138730
Bq         3.0164878907    -0.3008647771     0.6668387766
Bq         2.8880935691    -0.3720030722     1.1448076471
Bq         3.0421667551    -0.2866371181     0.5712450025
Bq         2.8624147048    -0.3862307313     1.2404014212
Bq         3.0678456194    -0.2724094590     0.4756512284
Bq         2.8367358405    -0.4004583903     1.3359951953
Bq         3.0935244837    -0.2581818000     0.3800574543
Bq         2.9651301621    -0.3293200951     0.8580263248

1
2
3
4
5
6
7
8
9
10
11
12
13
14
15
16
17
18
19
20
21
22
23
24
25
26
27
28
29
30
31
32
33
34
35
36
37
38
39
40
41
42
43
44
45
46
47
48
49
50
51
52
53
54
55
56
57
58
59
60
61
62
63
64
65
66
67
68
69
70
71
72
73
74
75
76
77
78
79
80
81
82
83
84
85
86
87
88
89
90
91
92
93
94
95
96
97
98
99
100
101
102
103
104
105
106
107
108
109
110
111
112
113
114
115
116
117
118
119
120
121
122
123
124
125
126
127
128
129
130
131
132
133
134
135
136
137
138
139
140
141
142
143
144
145
146
147
148
149
150
151
152
153
154
155
156
157
158
159
160
161
162
163
164
165
166
167
168
169
170
171
172
173
174
175
176
177
178
179
180
181
182
183
184
185
186
187
188
189
190
191
192
193
194
195
196
197
198
199
200
201
202
203
204
205
206
207
208
209
210
211
212
213
214
215
216
217
218
219
220
221
222
223
224
225
226
227
228
229
230
231
232
233
234
235
236

