%nproc=8
%mem=1000MB
# rb3lyp/6-311+g** NMR geom=connectivity

Title

0 1
C    -4.0500558   -0.5771862    0.8136712
H    -5.0263804   -1.0082727    1.0024760
C    -3.9381552    0.6617804    0.2400876
H    -4.8252424    1.2338890   -0.0111295
C    -2.6768410    1.2433246    0.0057578
C    -1.4974121    0.5051527    0.2848253
C    -1.6508332   -0.7338728    0.9404026
H    -0.7713646   -1.2730967    1.2633753
C    -2.8898548   -1.2624035    1.1994307
H    -2.9683706   -2.2124563    1.7152676
C    -2.5773185    2.5963696   -0.4192930
H    -3.4870728    3.1412239   -0.6474055
C    -1.3741895    3.2147896   -0.4364030
H    -1.2997315    4.2742019   -0.6578144
C    -0.1719488    2.4994090   -0.1734588
C    -0.2043917    1.1018437    0.0192689
C     1.0513491    3.2042560   -0.0676222
H     1.0427344    4.2819499   -0.1896997
C     2.1942091    2.5487446    0.2579577
H     3.1168527    3.0912848    0.4334727
C     2.2216473    1.1336562    0.2934990
C     1.0486931    0.3945528    0.0302412
C     3.4483363    0.4614633    0.5573939
H     4.3095794    1.0606054    0.8334846
C     3.5427346   -0.8855926    0.4749463
H     4.4731467   -1.3939704    0.7038822
C     2.4490052   -1.6474447   -0.0196319
C     1.2150704   -1.0057258   -0.3013573
C     0.2531113   -1.7434440   -1.0216591
H    -0.6541356   -1.2535051   -1.3462847
C     0.4494193   -3.0628597   -1.3413779
H    -0.3083162   -3.5944309   -1.9054060
C     1.6251726   -3.7207967   -0.9552541
H     1.7670048   -4.7687404   -1.1927019
C     2.6109872   -3.0144177   -0.3183050
H     3.5525612   -3.4902813   -0.0646367
Bq        -0.1389449568     3.8505583487     0.4587347814
Bq        -0.1005251435     3.6050651749    -0.5099018995
Bq        -0.1197350501     3.7278117618    -0.0255835590
Bq        -0.1226040772     3.8493009111     0.0467500797
Bq        -0.1149201146     3.8002022763    -0.1469772565
Bq        -0.1264460585     3.8738502285     0.1436137477
Bq        -0.1110781332     3.7756529590    -0.2438409246
Bq        -0.1302880399     3.8983995458     0.2404774158
Bq        -0.1072361519     3.7511036416    -0.3407045927
Bq        -0.1341300212     3.9229488632     0.3373410839
Bq        -0.1033941706     3.7265543242    -0.4375682608
Bq        -0.1379720025     3.9474981806     0.4342047520
Bq        -0.0995521892     3.7020050068    -0.5344319289
Bq        -0.1187620959     3.8247515937    -0.0501135884
Bq        -0.1216311230     3.9462407430     0.0222200502
Bq        -0.1139471603     3.8971421083    -0.1715072859
Bq        -0.1254731043     3.9707900604     0.1190837183
Bq        -0.1101051790     3.8725927909    -0.2683709540
Bq        -0.1293150856     3.9953393778     0.2159473864
Bq        -0.1062631977     3.8480434735    -0.3652346221
Bq        -0.1331570670     4.0198886952     0.3128110545
Bq        -0.1024212163     3.8234941562    -0.4620982902
Bq        -0.1369990483     4.0444380125     0.4096747226
Bq        -0.0985792350     3.7989448388    -0.5589619583
Bq        -0.1177891417     3.9216914257    -0.0746436179
Bq        -0.1206581688     4.0431805750    -0.0023099792
Bq        -0.1129742061     3.9940819402    -0.1960373154
Bq        -0.1245001501     4.0677298924     0.0945536889
Bq        -0.1091322248     3.9695326228    -0.2929009835
Bq        -0.1283421314     4.0922792097     0.1914173570
Bq        -0.1052902435     3.9449833055    -0.3897646516
Bq        -0.1321841128     4.1168285271     0.2882810251
Bq        -0.1014482621     3.9204339881    -0.4866283196
Bq        -0.1360260941     4.1413778445     0.3851446932
Bq        -0.0976062808     3.8958846707    -0.5834919877
Bq        -0.1168161874     4.0186312576    -0.0991736473
Bq        -0.1196852145     4.1401204069    -0.0268400086
Bq        -0.1120012519     4.0910217722    -0.2205673448
Bq        -0.1235271959     4.1646697243     0.0700236595
Bq        -0.1081592706     4.0664724548    -0.3174310129
Bq        -0.1273691772     4.1892190417     0.1668873276
Bq        -0.1043172892     4.0419231374    -0.4142946810
Bq        -0.1312111585     4.2137683590     0.2637509956
Bq        -0.1004753079     4.0173738200    -0.5111583491
Bq        -0.1350531399     4.2383176764     0.3606146637
Bq        -0.0966333266     3.9928245027    -0.6080220172
Bq        -0.1158432332     4.1155710895    -0.1237036767
Bq        -0.1187122603     4.2370602389    -0.0513700381
Bq        -0.1110282977     4.1879616041    -0.2450973742
Bq        -0.1225542416     4.2616095562     0.0454936300
Bq        -0.1071863163     4.1634122867    -0.3419610423
Bq        -0.1263962230     4.2861588736     0.1423572981
Bq        -0.1033443350     4.1388629694    -0.4388247104
Bq        -0.1302382043     4.3107081910     0.2392209662
Bq        -0.0995023537     4.1143136520    -0.5356883785
Bq        -0.1340801856     4.3352575084     0.3360846343
Bq        -0.0956603723     4.0897643346    -0.6325520466
Bq        -0.1148702790     4.2125109215    -0.1482337061
Bq        -0.1177393061     4.3340000708    -0.0759000675
Bq        -0.1100553434     4.2849014360    -0.2696274037
Bq        -0.1215812874     4.3585493882     0.0209636006
Bq        -0.1062133621     4.2603521187    -0.3664910717
Bq        -0.1254232688     4.3830987055     0.1178272687
Bq        -0.1023713808     4.2358028013    -0.4633547398
Bq        -0.1292652501     4.4076480229     0.2146909368
Bq        -0.0985293994     4.2112534839    -0.5602184079
Bq        -0.1331072314     4.4321973403     0.3115546049
Bq        -0.0946874181     4.1867041665    -0.6570820760
Bq        -0.1138973248     4.3094507534    -0.1727637356
Bq        -0.1167663519     4.4309399027    -0.1004300969
Bq        -0.1090823892     4.3818412680    -0.2941574331
Bq        -0.1206083332     4.4554892201    -0.0035664288
Bq        -0.1052404079     4.3572919506    -0.3910211012
Bq        -0.1244503145     4.4800385375     0.0932972393
Bq        -0.1013984266     4.3327426332    -0.4878847693
Bq        -0.1282922959     4.5045878549     0.1901609074
Bq        -0.0975564452     4.3081933159    -0.5847484374
Bq        -0.1321342772     4.5291371722     0.2870245755
Bq        -0.0937144639     4.2836439985    -0.6816121054
Bq        -0.1129243705     4.4063905854    -0.1972937650
Bq        -0.0654926313    -0.4160516942     1.1300346383
Bq        -0.0578086686    -0.4651503290     0.9363073021
Bq        -0.0693346126    -0.3915023768     1.2268983064
Bq        -0.0539666873    -0.4896996464     0.8394436340
Bq        -0.0731765939    -0.3669530595     1.3237619745
Bq        -0.0501247059    -0.5142489637     0.7425799660
Bq        -0.0770185752    -0.3424037421     1.4206256426
Bq        -0.0462827246    -0.5387982811     0.6457162979
Bq        -0.0808605566    -0.3178544247     1.5174893107
Bq        -0.0424407433    -0.5633475985     0.5488526298
Bq        -0.0616506499    -0.4406010116     1.0331709702
Bq        -0.0645196770    -0.3191118623     1.1055046089
Bq        -0.0568357144    -0.3682104970     0.9117772727
Bq        -0.0683616584    -0.2945625449     1.2023682770
Bq        -0.0529937330    -0.3927598144     0.8149136046
Bq        -0.0722036397    -0.2700132275     1.2992319451
Bq        -0.0491517517    -0.4173091318     0.7180499365
Bq        -0.0760456210    -0.2454639102     1.3960956132
Bq        -0.0453097704    -0.4418584492     0.6211862684
Bq        -0.0798876023    -0.2209145928     1.4929592812
Bq        -0.0414677891    -0.4664077665     0.5243226003
Bq        -0.0606776957    -0.3436611797     1.0086409408
Bq        -0.0635467228    -0.2221720303     1.0809745795
Bq        -0.0558627602    -0.2712706651     0.8872472433
Bq        -0.0673887041    -0.1976227130     1.1778382476
Bq        -0.0520207788    -0.2958199825     0.7903835752
Bq        -0.0712306855    -0.1730733956     1.2747019156
Bq        -0.0481787975    -0.3203692998     0.6935199071
Bq        -0.0750726668    -0.1485240782     1.3715655837
Bq        -0.0443368162    -0.3449186172     0.5966562390
Bq        -0.0789146481    -0.1239747608     1.4684292518
Bq        -0.0404948348    -0.3694679346     0.4997925709
Bq        -0.0597047415    -0.2467213477     0.9841109114
Bq        -0.0625737686    -0.1252321984     1.0564445500
Bq        -0.0548898059    -0.1743308332     0.8627172139
Bq        -0.0664157499    -0.1006828810     1.1533082181
Bq        -0.0510478246    -0.1988801505     0.7658535458
Bq        -0.0702577312    -0.0761335637     1.2501718862
Bq        -0.0472058433    -0.2234294679     0.6689898777
Bq        -0.0740997126    -0.0515842463     1.3470355543
Bq        -0.0433638619    -0.2479787853     0.5721262096
Bq        -0.0779416939    -0.0270349289     1.4438992224
Bq        -0.0395218806    -0.2725281027     0.4752625415
Bq        -0.0587317873    -0.1497815158     0.9595808819
Bq        -0.0616008144    -0.0282923665     1.0319145206
Bq        -0.0539168517    -0.0773910012     0.8381871844
Bq        -0.0654427957    -0.0037430491     1.1287781887
Bq        -0.0500748704    -0.1019403186     0.7413235163
Bq        -0.0692847770     0.0208062683     1.2256418568
Bq        -0.0462328890    -0.1264896360     0.6444598482
Bq        -0.0731267583     0.0453555857     1.3225055249
Bq        -0.0423909077    -0.1510389533     0.5475961802
Bq        -0.0769687397     0.0699049030     1.4193691930
Bq        -0.0385489264    -0.1755882707     0.4507325121
Bq        -0.0577588330    -0.0528416838     0.9350508525
Bq        -0.0606278601     0.0686474655     1.0073844912
Bq        -0.0529438975     0.0195488307     0.8136571550
Bq        -0.0644698415     0.0931967828     1.1042481593
Bq        -0.0491019161    -0.0050004867     0.7167934869
Bq        -0.0683118228     0.1177461002     1.2011118274
Bq        -0.0452599348    -0.0295498040     0.6199298188
Bq        -0.0721538041     0.1422954176     1.2979754954
Bq        -0.0414179535    -0.0540991214     0.5230661507
Bq        -0.0759957855     0.1668447350     1.3948391635
Bq        -0.0375759722    -0.0786484388     0.4262024826
Bq        -0.0567858788     0.0440981481     0.9105208231
Bq        -0.0596549059     0.1655872974     0.9828544618
Bq        -0.0519709433     0.1164886627     0.7891271256
Bq        -0.0634968872     0.1901366148     1.0797181298
Bq        -0.0481289619     0.0919393453     0.6922634575
Bq        -0.0673388686     0.2146859322     1.1765817979
Bq        -0.0442869806     0.0673900279     0.5953997894
Bq        -0.0711808499     0.2392352495     1.2734454660
Bq        -0.0404449993     0.0428407105     0.4985361213
Bq        -0.0750228312     0.2637845669     1.3703091341
Bq        -0.0366030179     0.0182913932     0.4016724532
Bq        -0.0558129246     0.1410379800     0.8859907937
Bq        -0.0586819517     0.2625271294     0.9583244323
Bq        -0.0509979890     0.2134284946     0.7645970961
Bq        -0.0625239330     0.2870764467     1.0551881004
Bq        -0.0471560077     0.1888791772     0.6677334281
Bq        -0.0663659143     0.3116257641     1.1520517685
Bq        -0.0433140264     0.1643298598     0.5708697600
Bq        -0.0702078957     0.3361750815     1.2489154366
Bq        -0.0394720450     0.1397805425     0.4740060919
Bq        -0.0740498770     0.3607243989     1.3457791047
Bq        -0.0356300637     0.1152312251     0.3771424238
Bq        -0.0548399704     0.2379778120     0.8614607642
Bq        -0.0577089975     0.3594669613     0.9337944029
Bq        -0.0500250348     0.3103683265     0.7400670667
Bq        -0.0615509788     0.3840162787     1.0306580710
Bq        -0.0461830535     0.2858190092     0.6432033986
Bq        -0.0653929601     0.4085655960     1.1275217391
Bq        -0.0423410721     0.2612696918     0.5463397305
Bq        -0.0692349414     0.4331149134     1.2243854072
Bq        -0.0384990908     0.2367203744     0.4494760624
Bq        -0.0730769228     0.4576642308     1.3212490753
Bq        -0.0346571095     0.2121710570     0.3526123944
Bq        -0.0538670161     0.3349176439     0.8369307348
Bq        -0.0567360432     0.4564067932     0.9092643735
Bq        -0.0490520806     0.4073081585     0.7155370373
Bq        -0.0605780246     0.4809561106     1.0061280416
Bq        -0.0452100993     0.3827588411     0.6186733692
Bq        -0.0644200059     0.5055054280     1.1029917097
Bq        -0.0413681179     0.3582095237     0.5218097011
Bq        -0.0682619872     0.5300547454     1.1998553777
Bq        -0.0375261366     0.3336602064     0.4249460330
Bq        -0.0721039686     0.5546040627     1.2967190458
Bq        -0.0336841553     0.3091108890     0.3280823649
Bq        -0.0528940619     0.4318574759     0.8124007054
Bq        -0.0557630890     0.5533466252     0.8847343440
Bq        -0.0480791264     0.5042479904     0.6910070079
Bq        -0.0596050703     0.5778959425     0.9815980121
Bq        -0.0442371450     0.4796986730     0.5941433398
Bq        -0.0634470517     0.6024452599     1.0784616802
Bq        -0.0403951637     0.4551493557     0.4972796717
Bq        -0.0672890330     0.6269945773     1.1753253483
Bq        -0.0365531824     0.4306000383     0.4004160036
Bq        -0.0711310143     0.6515438947     1.2721890164
Bq        -0.0327112010     0.4060507209     0.3035523355

1
2
3
4
5
6
7
8
9
10
11
12
13
14
15
16
17
18
19
20
21
22
23
24
25
26
27
28
29
30
31
32
33
34
35
36
37
38
39
40
41
42
43
44
45
46
47
48
49
50
51
52
53
54
55
56
57
58
59
60
61
62
63
64
65
66
67
68
69
70
71
72
73
74
75
76
77
78
79
80
81
82
83
84
85
86
87
88
89
90
91
92
93
94
95
96
97
98
99
100
101
102
103
104
105
106
107
108
109
110
111
112
113
114
115
116
117
118
119
120
121
122
123
124
125
126
127
128
129
130
131
132
133
134
135
136
137
138
139
140
141
142
143
144
145
146
147
148
149
150
151
152
153
154
155
156
157
158
159
160
161
162
163
164
165
166
167
168
169
170
171
172
173
174
175
176
177
178
179
180
181
182
183
184
185
186
187
188
189
190
191
192
193
194
195
196
197
198
199
200
201
202
203
204
205
206
207
208
209
210
211
212
213
214
215
216
217
218
219
220
221
222
223
224
225
226
227
228
229
230
231
232
233
234
235
236

