%nproc=8
%mem=1000MB
# rb3lyp/6-311+g** NMR geom=connectivity

Title

0 1
C    -4.0500558   -0.5771862    0.8136712
H    -5.0263804   -1.0082727    1.0024760
C    -3.9381552    0.6617804    0.2400876
H    -4.8252424    1.2338890   -0.0111295
C    -2.6768410    1.2433246    0.0057578
C    -1.4974121    0.5051527    0.2848253
C    -1.6508332   -0.7338728    0.9404026
H    -0.7713646   -1.2730967    1.2633753
C    -2.8898548   -1.2624035    1.1994307
H    -2.9683706   -2.2124563    1.7152676
C    -2.5773185    2.5963696   -0.4192930
H    -3.4870728    3.1412239   -0.6474055
C    -1.3741895    3.2147896   -0.4364030
H    -1.2997315    4.2742019   -0.6578144
C    -0.1719488    2.4994090   -0.1734588
C    -0.2043917    1.1018437    0.0192689
C     1.0513491    3.2042560   -0.0676222
H     1.0427344    4.2819499   -0.1896997
C     2.1942091    2.5487446    0.2579577
H     3.1168527    3.0912848    0.4334727
C     2.2216473    1.1336562    0.2934990
C     1.0486931    0.3945528    0.0302412
C     3.4483363    0.4614633    0.5573939
H     4.3095794    1.0606054    0.8334846
C     3.5427346   -0.8855926    0.4749463
H     4.4731467   -1.3939704    0.7038822
C     2.4490052   -1.6474447   -0.0196319
C     1.2150704   -1.0057258   -0.3013573
C     0.2531113   -1.7434440   -1.0216591
H    -0.6541356   -1.2535051   -1.3462847
C     0.4494193   -3.0628597   -1.3413779
H    -0.3083162   -3.5944309   -1.9054060
C     1.6251726   -3.7207967   -0.9552541
H     1.7670048   -4.7687404   -1.1927019
C     2.6109872   -3.0144177   -0.3183050
H     3.5525612   -3.4902813   -0.0646367
Bq         0.4592119955     0.4551493557     0.5170959910
Bq         0.4323181262     0.6269945773     1.1951416676
Bq         0.4630539768     0.4306000383     0.4202323229
Bq         0.4284761448     0.6515438947     1.2920053357
Bq         0.4668959581     0.4060507209     0.3233686548
Bq         0.4476860515     0.5287973078     0.8076869953
Bq         0.4448170244     0.6502864571     0.8800206339
Bq         0.4525009870     0.6011878224     0.6862932978
Bq         0.4409750430     0.6748357745     0.9768843020
Bq         0.4563429684     0.5766385050     0.5894296297
Bq         0.4371330617     0.6993850919     1.0737479701
Bq         0.4601849497     0.5520891876     0.4925659616
Bq         0.4332910804     0.7239344092     1.1706116382
Bq         0.4640269310     0.5275398702     0.3957022935
Bq         0.4294490991     0.7484837266     1.2674753063
Bq         0.4678689124     0.5029905529     0.2988386254
Bq         0.4486590057     0.6257371397     0.7831569658
Bq         0.4457899786     0.7472262890     0.8554906045
Bq         0.4534739413     0.6981276543     0.6617632683
Bq         0.4419479973     0.7717756064     0.9523542726
Bq         0.4573159226     0.6735783369     0.5648996002
Bq         0.4381060159     0.7963249238     1.0492179407
Bq         0.4611579039     0.6490290195     0.4680359322
Bq         0.4342640346     0.8208742412     1.1460816088
Bq         0.4649998852     0.6244797022     0.3711722641
Bq         0.4304220533     0.8454235585     1.2429452769
Bq         0.4688418666     0.5999303848     0.2743085960
Bq         0.4496319599     0.7226769717     0.7586269364
Bq         0.4467629328     0.8441661210     0.8309605751
Bq         0.4544468955     0.7950674862     0.6372332389
Bq         0.4429209515     0.8687154384     0.9278242432
Bq         0.4582888768     0.7705181689     0.5403695708
Bq         0.4390789702     0.8932647557     1.0246879113
Bq         0.4621308581     0.7459688515     0.4435059027
Bq         0.4352369888     0.9178140731     1.1215515794
Bq         0.4659728395     0.7214195341     0.3466422346
Bq         0.4313950075     0.9423633905     1.2184152474
Bq         0.4698148208     0.6968702167     0.2497785665
Bq         0.4506049142     0.8196168036     0.7340969070
Bq         0.4477358870     0.9411059529     0.8064305457
Bq         0.4554198497     0.8920073182     0.6127032095
Bq         0.4438939057     0.9656552703     0.9032942137
Bq         0.4592618310     0.8674580008     0.5158395414
Bq         0.4400519244     0.9902045877     1.0001578818
Bq         0.4631038124     0.8429086834     0.4189758733
Bq         0.4362099431     1.0147539051     1.0970215499
Bq         0.4669457937     0.8183593660     0.3221122052
Bq         0.4323679617     1.0393032224     1.1938852180
Bq         0.4707877750     0.7938100487     0.2252485371
Bq         0.4515778684     0.9165566355     0.7095668776
Bq         0.4487088413     1.0380457849     0.7819005162
Bq         0.4563928039     0.9889471501     0.5881731800
Bq         0.4448668599     1.0625951022     0.8787641843
Bq         0.4602347853     0.9643978327     0.4913095120
Bq         0.4410248786     1.0871444196     0.9756278524
Bq         0.4640767666     0.9398485154     0.3944458439
Bq         0.4371828973     1.1116937370     1.0724915205
Bq         0.4679187479     0.9152991980     0.2975821758
Bq         0.4333409160     1.1362430544     1.1693551886
Bq         0.4717607292     0.8907498806     0.2007185077
Bq         0.4525508226     1.0134964675     0.6850368481
Bq         0.4496817955     1.1349856168     0.7573704868
Bq         0.4573657582     1.0858869821     0.5636431506
Bq         0.4458398142     1.1595349342     0.8542341549
Bq         0.4612077395     1.0613376647     0.4667794825
Bq         0.4419978328     1.1840842516     0.9510978230
Bq         0.4650497208     1.0367883473     0.3699158144
Bq         0.4381558515     1.2086335689     1.0479614911
Bq         0.4688917021     1.0122390299     0.2730521464
Bq         0.4343138702     1.2331828863     1.1448251592
Bq         0.4727336835     0.9876897125     0.1761884783
Bq         0.4535237768     1.1104362994     0.6605068187
Bq         0.4506547497     1.2319254487     0.7328404574
Bq         0.4583387124     1.1828268140     0.5391131212
Bq         0.4468127684     1.2564747661     0.8297041255
Bq         0.4621806937     1.1582774966     0.4422494531
Bq         0.4429707871     1.2810240835     0.9265677936
Bq         0.4660226750     1.1337281792     0.3453857850
Bq         0.4391288057     1.3055734009     1.0234314616
Bq         0.4698646564     1.1091788619     0.2485221169
Bq         0.4352868244     1.3301227182     1.1202951297
Bq         0.4737066377     1.0846295445     0.1516584488
Bq         0.4544967311     1.2073761314     0.6359767893
Bq         0.4516277039     1.3288652807     0.7083104279
Bq         0.4593116666     1.2797666459     0.5145830918
Bq         0.4477857226     1.3534145981     0.8051740960
Bq         0.4631536479     1.2552173286     0.4177194237
Bq         0.4439437413     1.3779639154     0.9020377641
Bq         0.4669956293     1.2306680112     0.3208557556
Bq         0.4401017600     1.4025132328     0.9989014322
Bq         0.4708376106     1.2061186938     0.2239920875
Bq         0.4362597786     1.4270625502     1.0957651003
Bq         0.4746795919     1.1815693764     0.1271284194
Bq         0.4554696853     1.3043159633     0.6114467599
Bq         0.4526006582     1.4258051126     0.6837803985
Bq         0.4602846208     1.3767064779     0.4900530623
Bq         0.4487586768     1.4503544300     0.7806440666
Bq         0.4641266022     1.3521571605     0.3931893943
Bq         0.4449166955     1.4749037474     0.8775077347
Bq         0.4679685835     1.3276078431     0.2963257262
Bq         0.4410747142     1.4994530647     0.9743714028
Bq         0.4718105648     1.3030585257     0.1994620581
Bq         0.4372327329     1.5240023821     1.0712350709
Bq         0.4756525461     1.2785092084     0.1025983900
Bq         0.4564426395     1.4012557952     0.5869167304
Bq         0.4535736124     1.5227449446     0.6592503691
Bq         0.4612575751     1.4736463098     0.4655230329
Bq         0.4497316311     1.5472942619     0.7561140372
Bq         0.4650995564     1.4490969924     0.3686593648
Bq         0.4458896497     1.5718435793     0.8529777053
Bq         0.4689415377     1.4245476751     0.2717956967
Bq         0.4420476684     1.5963928967     0.9498413734
Bq         0.4727835190     1.3999983577     0.1749320286
Bq         0.4382056871     1.6209422141     1.0467050415
Bq         0.4766255004     1.3754490403     0.0780683606
Bq         0.4574155937     1.4981956272     0.5623867010
Bq         0.4545465666     1.6196847765     0.6347203397
Bq         0.4622305293     1.5705861417     0.4409930035
Bq         0.4507045853     1.6442340939     0.7315840078
Bq         0.4660725106     1.5460368244     0.3441293354
Bq         0.4468626040     1.6687834113     0.8284476758
Bq         0.4699144919     1.5214875070     0.2472656673
Bq         0.4430206226     1.6933327286     0.9253113439
Bq         0.4737564733     1.4969381896     0.1504019992
Bq         0.4391786413     1.7178820460     1.0221750120
Bq         0.4775984546     1.4723888722     0.0535383311
Bq         0.4583885479     1.5951354591     0.5378566716
Bq         0.4555195208     1.7166246084     0.6101903102
Bq         0.4632034835     1.6675259737     0.4164629741
Bq         0.4516775395     1.7411739258     0.7070539783
Bq         0.4670454648     1.6429766563     0.3195993060
Bq         0.4478355582     1.7657232432     0.8039176464
Bq         0.4708874462     1.6184273389     0.2227356379
Bq         0.4439935769     1.7902725606     0.9007813145
Bq         0.4747294275     1.5938780216     0.1258719698
Bq         0.4401515955     1.8148218779     0.9976449826
Bq         0.4785714088     1.5693287042     0.0290083017
Bq         0.4593615022     1.6920752911     0.5133266421
Bq         0.4564924751     1.8135644404     0.5856602808
Bq         0.4641764377     1.7644658056     0.3919329446
Bq         0.4526504937     1.8381137578     0.6825239489
Bq         0.4680184191     1.7399164882     0.2950692765
Bq         0.4488085124     1.8626630751     0.7793876170
Bq         0.4718604004     1.7153671709     0.1982056085
Bq         0.4449665311     1.8872123925     0.8762512851
Bq         0.4757023817     1.6908178535     0.1013419404
Bq         0.4411245498     1.9117617099     0.9731149532
Bq         0.4795443630     1.6662685361     0.0044782723
Bq         0.4603344564     1.7890151230     0.4887966127
Bq         0.4574654293     1.9105042723     0.5611302514
Bq         0.4651493920     1.8614056376     0.3674029152
Bq         0.4536234480     1.9350535897     0.6579939195
Bq         0.4689913733     1.8368563202     0.2705392471
Bq         0.4497814666     1.9596029071     0.7548575876
Bq         0.4728333546     1.8123070028     0.1736755790
Bq         0.4459394853     1.9841522244     0.8517212557
Bq         0.4766753359     1.7877576854     0.0768119109
Bq         0.4420975040     2.0087015418     0.9485849237
Bq         0.4805173173     1.7632083681    -0.0200517572
Bq         0.4613074106     1.8859549549     0.4642665833
Bq         0.4584383835     2.0074441043     0.5366002220
Bq         0.4661223462     1.9583454695     0.3428728858
Bq         0.4545964022     2.0319934216     0.6334638900
Bq         0.4699643275     1.9337961521     0.2460092177
Bq         0.4507544209     2.0565427390     0.7303275581
Bq         0.4738063088     1.9092468348     0.1491455496
Bq         0.4469124395     2.0810920564     0.8271912262
Bq         0.4776482902     1.8846975174     0.0522818815
Bq         0.4430704582     2.1056413738     0.9240548943
Bq         0.4814902715     1.8601482000    -0.0445817866
Bq         0.4622803648     1.9828947869     0.4397365539
Bq         0.4594113377     2.1043839362     0.5120701925
Bq         0.4670953004     2.0552853014     0.3183428564
Bq         0.4555693564     2.1289332536     0.6089338606
Bq         0.4709372817     2.0307359841     0.2214791883
Bq         0.4517273751     2.1534825709     0.7057975287
Bq         0.4747792631     2.0061866667     0.1246155202
Bq         0.4478853938     2.1780318883     0.8026611968
Bq         0.4786212444     1.9816373493     0.0277518521
Bq         0.4440434124     2.2025812057     0.8995248649
Bq         0.4824632257     1.9570880319    -0.0691118160
Bq         0.4632533191     2.0798346188     0.4152065244
Bq         0.4603842920     2.2013237681     0.4875401631
Bq         0.4680682546     2.1522251334     0.2938128269
Bq         0.4565423106     2.2258730855     0.5844038312
Bq         0.4719102360     2.1276758160     0.1969491588
Bq         0.4527003293     2.2504224029     0.6812674993
Bq         0.4757522173     2.1031264986     0.1000854907
Bq         0.4488583480     2.2749717203     0.7781311674
Bq         0.4795941986     2.0785771813     0.0032218227
Bq         0.4450163666     2.2995210376     0.8749948355
Bq         0.4834361799     2.0540278639    -0.0936418454
Bq         0.4642262733     2.1767744508     0.3906764950
Bq         0.4613572462     2.2982636001     0.4630101337
Bq         0.4690412088     2.2491649653     0.2692827975
Bq         0.4575152649     2.3228129174     0.5598738018
Bq         0.4728831902     2.2246156479     0.1724191294
Bq         0.4536732835     2.3473622348     0.6567374699
Bq         0.4767251715     2.2000663306     0.0755554613
Bq         0.4498313022     2.3719115522     0.7536011379

1
2
3
4
5
6
7
8
9
10
11
12
13
14
15
16
17
18
19
20
21
22
23
24
25
26
27
28
29
30
31
32
33
34
35
36
37
38
39
40
41
42
43
44
45
46
47
48
49
50
51
52
53
54
55
56
57
58
59
60
61
62
63
64
65
66
67
68
69
70
71
72
73
74
75
76
77
78
79
80
81
82
83
84
85
86
87
88
89
90
91
92
93
94
95
96
97
98
99
100
101
102
103
104
105
106
107
108
109
110
111
112
113
114
115
116
117
118
119
120
121
122
123
124
125
126
127
128
129
130
131
132
133
134
135
136
137
138
139
140
141
142
143
144
145
146
147
148
149
150
151
152
153
154
155
156
157
158
159
160
161
162
163
164
165
166
167
168
169
170
171
172
173
174
175
176
177
178
179
180
181
182
183
184
185
186
187
188
189
190
191
192
193
194
195
196
197
198
199
200
201
202
203
204
205
206
207
208
209
210
211
212
213
214
215
216
217
218
219
220
221
222
223
224
225
226
227
228
229
230
231
232
233
234
235
236

