%nproc=8
%mem=1000MB
# rb3lyp/6-311+g** NMR geom=connectivity

Title

0 1
C    -4.0500558   -0.5771862    0.8136712
H    -5.0263804   -1.0082727    1.0024760
C    -3.9381552    0.6617804    0.2400876
H    -4.8252424    1.2338890   -0.0111295
C    -2.6768410    1.2433246    0.0057578
C    -1.4974121    0.5051527    0.2848253
C    -1.6508332   -0.7338728    0.9404026
H    -0.7713646   -1.2730967    1.2633753
C    -2.8898548   -1.2624035    1.1994307
H    -2.9683706   -2.2124563    1.7152676
C    -2.5773185    2.5963696   -0.4192930
H    -3.4870728    3.1412239   -0.6474055
C    -1.3741895    3.2147896   -0.4364030
H    -1.2997315    4.2742019   -0.6578144
C    -0.1719488    2.4994090   -0.1734588
C    -0.2043917    1.1018437    0.0192689
C     1.0513491    3.2042560   -0.0676222
H     1.0427344    4.2819499   -0.1896997
C     2.1942091    2.5487446    0.2579577
H     3.1168527    3.0912848    0.4334727
C     2.2216473    1.1336562    0.2934990
C     1.0486931    0.3945528    0.0302412
C     3.4483363    0.4614633    0.5573939
H     4.3095794    1.0606054    0.8334846
C     3.5427346   -0.8855926    0.4749463
H     4.4731467   -1.3939704    0.7038822
C     2.4490052   -1.6474447   -0.0196319
C     1.2150704   -1.0057258   -0.3013573
C     0.2531113   -1.7434440   -1.0216591
H    -0.6541356   -1.2535051   -1.3462847
C     0.4494193   -3.0628597   -1.3413779
H    -0.3083162   -3.5944309   -1.9054060
C     1.6251726   -3.7207967   -0.9552541
H     1.7670048   -4.7687404   -1.1927019
C     2.6109872   -3.0144177   -0.3183050
H     3.5525612   -3.4902813   -0.0646367
Bq         3.3577328589    -0.9795159763     0.5528895710
Bq         3.1779808087    -1.0791095895     1.2220459896
Bq         3.3834117233    -0.9652883173     0.4572957969
Bq         3.1523019444    -1.0933372485     1.3176397637
Bq         3.4090905876    -0.9510606583     0.3617020228
Bq         3.2806962660    -1.0221989534     0.8396708932
Bq         3.2513263511    -0.9374439184     0.9490052069
Bq         3.3026840798    -0.9089886003     0.7578176587
Bq         3.2256474868    -0.9516715774     1.0445989810
Bq         3.3283629441    -0.8947609413     0.6622238846
Bq         3.1999686225    -0.9658992364     1.1401927551
Bq         3.3540418084    -0.8805332823     0.5666301105
Bq         3.1742897582    -0.9801268955     1.2357865292
Bq         3.3797206727    -0.8663056232     0.4710363364
Bq         3.1486108938    -0.9943545545     1.3313803033
Bq         3.4053995371    -0.8520779642     0.3754425623
Bq         3.2770052154    -0.9232162594     0.8534114328
Bq         3.2476353006    -0.8384612243     0.9627457465
Bq         3.2989930292    -0.8100059063     0.7715581983
Bq         3.2219564363    -0.8526888834     1.0583395205
Bq         3.3246718936    -0.7957782473     0.6759644242
Bq         3.1962775719    -0.8669165424     1.1539332946
Bq         3.3503507579    -0.7815505882     0.5803706501
Bq         3.1705987076    -0.8811442014     1.2495270687
Bq         3.3760296222    -0.7673229292     0.4847768760
Bq         3.1449198433    -0.8953718605     1.3451208428
Bq         3.4017084865    -0.7530952702     0.3891831019
Bq         3.2733141649    -0.8242335653     0.8671519724
Bq         3.2439442501    -0.7394785303     0.9764862860
Bq         3.2953019787    -0.7110232123     0.7852987378
Bq         3.2182653857    -0.7537061893     1.0720800601
Bq         3.3209808430    -0.6967955532     0.6897049637
Bq         3.1925865214    -0.7679338484     1.1676738342
Bq         3.3466597073    -0.6825678942     0.5941111896
Bq         3.1669076571    -0.7821615074     1.2632676083
Bq         3.3723385717    -0.6683402352     0.4985174155
Bq         3.1412287928    -0.7963891664     1.3588613824
Bq         3.3980174360    -0.6541125761     0.4029236414
Bq         3.2696231144    -0.7252508713     0.8808925119
Bq         3.2402531995    -0.6404958363     0.9902268256
Bq         3.2916109282    -0.6120405182     0.7990392774
Bq         3.2145743352    -0.6547234953     1.0858205997
Bq         3.3172897925    -0.5978128592     0.7034455033
Bq         3.1888954709    -0.6689511543     1.1814143738
Bq         3.3429686568    -0.5835852002     0.6078517292
Bq         3.1632166065    -0.6831788134     1.2770081479
Bq         3.3686475211    -0.5693575411     0.5122579551
Bq         3.1375377422    -0.6974064724     1.3726019219
Bq         3.3943263855    -0.5551298821     0.4166641810
Bq         3.2659320638    -0.6262681772     0.8946330515
Bq         3.2365621490    -0.5415131422     1.0039673651
Bq         3.2879198776    -0.5130578242     0.8127798169
Bq         3.2108832847    -0.5557408013     1.0995611392
Bq         3.3135987419    -0.4988301652     0.7171860428
Bq         3.1852044203    -0.5699684603     1.1951549133
Bq         3.3392776063    -0.4846025061     0.6215922688
Bq         3.1595255560    -0.5841961193     1.2907486874
Bq         3.3649564706    -0.4703748471     0.5259984947
Bq         3.1338466917    -0.5984237784     1.3863424615
Bq         3.3906353349    -0.4561471881     0.4304047206
Bq         3.2622410133    -0.5272854832     0.9083735910
Bq         3.2328710984    -0.4425304482     1.0177079047
Bq         3.2842288271    -0.4140751301     0.8265203565
Bq         3.2071922341    -0.4567581072     1.1133016788
Bq         3.3099076914    -0.3998474711     0.7309265824
Bq         3.1815133698    -0.4709857663     1.2088954529
Bq         3.3355865557    -0.3856198121     0.6353328083
Bq         3.1558345055    -0.4852134253     1.3044892270
Bq         3.3612654201    -0.3713921531     0.5397390342
Bq         3.1301556412    -0.4994410843     1.4000830011
Bq         3.3869442844    -0.3571644940     0.4441452601
Bq         3.2585499628    -0.4283027892     0.9221141306
Bq         3.2291800479    -0.3435477542     1.0314484442
Bq         3.2805377766    -0.3150924361     0.8402608961
Bq         3.2035011836    -0.3577754132     1.1270422183
Bq         3.3062166409    -0.3008647771     0.7446671220
Bq         3.1778223193    -0.3720030722     1.2226359924
Bq         3.3318955052    -0.2866371181     0.6490733479
Bq         3.1521434549    -0.3862307313     1.3182297665
Bq         3.3575743695    -0.2724094590     0.5534795738
Bq         3.1264645906    -0.4004583903     1.4138235406
Bq         3.3832532338    -0.2581818000     0.4578857997
Bq         3.2548589122    -0.3293200951     0.9358546702
Bq         3.2254889974    -0.2445650601     1.0451889838
Bq         3.2768467260    -0.2161097421     0.8540014356
Bq         3.1998101331    -0.2587927192     1.1407827579
Bq         3.3025255903    -0.2018820830     0.7584076615
Bq         3.1741312687    -0.2730203782     1.2363765320
Bq         3.3282044547    -0.1876544240     0.6628138874
Bq         3.1484524044    -0.2872480372     1.3319703061
Bq         3.3538833190    -0.1734267650     0.5672201133
Bq         3.1227735401    -0.3014756962     1.4275640802
Bq         3.3795621833    -0.1591991060     0.4716263392
Bq         3.2511678617    -0.2303374011     0.9495952097
Bq         3.2217979468    -0.1455823661     1.0589295234
Bq         3.2731556755    -0.1171270480     0.8677419752
Bq         3.1961190825    -0.1598100251     1.1545232975
Bq         3.2988345398    -0.1028993890     0.7721482011
Bq         3.1704402182    -0.1740376842     1.2501170716
Bq         3.3245134041    -0.0886717300     0.6765544270
Bq         3.1447613539    -0.1882653432     1.3457108456
Bq         3.3501922685    -0.0744440710     0.5809606529
Bq         3.1190824895    -0.2024930022     1.4413046197
Bq         3.3758711328    -0.0602164119     0.4853668788
Bq         3.2474768112    -0.1313547071     0.9633357493
Bq         3.2181068963    -0.0465996721     1.0726700629
Bq         3.2694646249    -0.0181443540     0.8814825147
Bq         3.1924280320    -0.0608273311     1.1682638370
Bq         3.2951434893    -0.0039166950     0.7858887406
Bq         3.1667491677    -0.0750549901     1.2638576111
Bq         3.3208223536     0.0103109641     0.6902949665
Bq         3.1410703033    -0.0892826491     1.3594513852
Bq         3.3465012179     0.0245386231     0.5947011925
Bq         3.1153914390    -0.1035103082     1.4550451593
Bq         3.3721800822     0.0387662821     0.4991074184
Bq         3.2437857606    -0.0323720130     0.9770762888
Bq         3.2144158458     0.0523830220     1.0864106025
Bq         3.2657735744     0.0808383400     0.8952230543
Bq         3.1887369814     0.0381553629     1.1820043766
Bq         3.2914524387     0.0950659991     0.7996292802
Bq         3.1630581171     0.0239277039     1.2775981507
Bq         3.3171313031     0.1092936581     0.7040355061
Bq         3.1373792528     0.0097000449     1.3731919248
Bq         3.3428101674     0.1235213171     0.6084417320
Bq         3.1117003885    -0.0045276141     1.4687856989
Bq         3.3684890317     0.1377489761     0.5128479579
Bq         3.2400947101     0.0666106810     0.9908168284
Bq         3.2107247952     0.1513657160     1.1001511420
Bq         3.2620825239     0.1798210341     0.9089635939
Bq         3.1850459309     0.1371380570     1.1957449161
Bq         3.2877613882     0.1940486931     0.8133698198
Bq         3.1593670666     0.1229103980     1.2913386902
Bq         3.3134402525     0.2082763521     0.7177760457
Bq         3.1336882023     0.1086827389     1.3869324643
Bq         3.3391191168     0.2225040112     0.6221822716
Bq         3.1080093379     0.0944550799     1.4825262384
Bq         3.3647979812     0.2367316702     0.5265884975
Bq         3.2364036596     0.1655933750     1.0045573679
Bq         3.2070337447     0.2503484100     1.1138916816
Bq         3.2583914733     0.2788037281     0.9227041334
Bq         3.1813548804     0.2361207510     1.2094854557
Bq         3.2840703377     0.2930313871     0.8271103593
Bq         3.1556760161     0.2218930920     1.3050792298
Bq         3.3097492020     0.3072590462     0.7315165852
Bq         3.1299971517     0.2076654330     1.4006730039
Bq         3.3354280663     0.3214867052     0.6359228111
Bq         3.1043182874     0.1934377739     1.4962667780
Bq         3.3611069306     0.3357143642     0.5403290370
Bq         3.2327126090     0.2645760691     1.0182979075
Bq         3.2033426942     0.3493311041     1.1276322212
Bq         3.2547004228     0.3777864221     0.9364446730
Bq         3.1776638298     0.3351034451     1.2232259953
Bq         3.2803792871     0.3920140812     0.8408508989
Bq         3.1519849655     0.3208757860     1.3188197693
Bq         3.3060581515     0.4062417402     0.7452571248
Bq         3.1263061012     0.3066481270     1.4144135434
Bq         3.3317370158     0.4204693992     0.6496633507
Bq         3.1006272369     0.2924204680     1.5100073175
Bq         3.3574158801     0.4346970583     0.5540695766
Bq         3.2290215585     0.3635587631     1.0320384471
Bq         3.1996516436     0.4483137981     1.1413727607
Bq         3.2510093723     0.4767691162     0.9501852125
Bq         3.1739727793     0.4340861391     1.2369665348
Bq         3.2766882366     0.4909967752     0.8545914384
Bq         3.1482939150     0.4198584801     1.3325603089
Bq         3.3023671009     0.5052244342     0.7589976643
Bq         3.1226150507     0.4056308210     1.4281540830
Bq         3.3280459652     0.5194520933     0.6634038902
Bq         3.0969361863     0.3914031620     1.5237478571
Bq         3.3537248296     0.5336797523     0.5678101161
Bq         3.2253305079     0.4625414571     1.0457789866
Bq         3.1959605931     0.5472964922     1.1551133003
Bq         3.2473183217     0.5757518102     0.9639257521
Bq         3.1702817288     0.5330688331     1.2507070744
Bq         3.2729971861     0.5899794692     0.8683319780
Bq         3.1446028644     0.5188411741     1.3463008485
Bq         3.2986760504     0.6042071283     0.7727382039
Bq         3.1189240001     0.5046135151     1.4418946226
Bq         3.3243549147     0.6184347873     0.6771444298
Bq         3.0932451358     0.4903858560     1.5374883967
Bq         3.3500337790     0.6326624463     0.5815506557
Bq         3.2216394574     0.5615241512     1.0595195262
Bq         3.1922695426     0.6462791862     1.1688538398
Bq         3.2436272712     0.6747345042     0.9776662916
Bq         3.1665906782     0.6320515272     1.2644476139
Bq         3.2693061355     0.6889621633     0.8820725176
Bq         3.1409118139     0.6178238681     1.3600413880
Bq         3.2949849998     0.7031898223     0.7864787435
Bq         3.1152329496     0.6035962091     1.4556351621
Bq         3.3206638642     0.7174174813     0.6908849694
Bq         3.0895540853     0.5893685501     1.5512289362
Bq         3.3463427285     0.7316451404     0.5952911953
Bq         3.2179484069     0.6605068452     1.0732600657
Bq         3.1885784920     0.7452618802     1.1825943794
Bq         3.2399362207     0.7737171983     0.9914068312
Bq         3.1628996277     0.7310342212     1.2781881535
Bq         3.2656150850     0.7879448573     0.8958130571
Bq         3.1372207634     0.7168065622     1.3737819276
Bq         3.2912939493     0.8021725163     0.8002192830
Bq         3.1115418991     0.7025789031     1.4693757017

1
2
3
4
5
6
7
8
9
10
11
12
13
14
15
16
17
18
19
20
21
22
23
24
25
26
27
28
29
30
31
32
33
34
35
36
37
38
39
40
41
42
43
44
45
46
47
48
49
50
51
52
53
54
55
56
57
58
59
60
61
62
63
64
65
66
67
68
69
70
71
72
73
74
75
76
77
78
79
80
81
82
83
84
85
86
87
88
89
90
91
92
93
94
95
96
97
98
99
100
101
102
103
104
105
106
107
108
109
110
111
112
113
114
115
116
117
118
119
120
121
122
123
124
125
126
127
128
129
130
131
132
133
134
135
136
137
138
139
140
141
142
143
144
145
146
147
148
149
150
151
152
153
154
155
156
157
158
159
160
161
162
163
164
165
166
167
168
169
170
171
172
173
174
175
176
177
178
179
180
181
182
183
184
185
186
187
188
189
190
191
192
193
194
195
196
197
198
199
200
201
202
203
204
205
206
207
208
209
210
211
212
213
214
215
216
217
218
219
220
221
222
223
224
225
226
227
228
229
230
231
232
233
234
235
236

