%nproc=8
%mem=1000MB
# rb3lyp/6-311+g** NMR geom=connectivity

Title

0 1
C    -4.0500558   -0.5771862    0.8136712
H    -5.0263804   -1.0082727    1.0024760
C    -3.9381552    0.6617804    0.2400876
H    -4.8252424    1.2338890   -0.0111295
C    -2.6768410    1.2433246    0.0057578
C    -1.4974121    0.5051527    0.2848253
C    -1.6508332   -0.7338728    0.9404026
H    -0.7713646   -1.2730967    1.2633753
C    -2.8898548   -1.2624035    1.1994307
H    -2.9683706   -2.2124563    1.7152676
C    -2.5773185    2.5963696   -0.4192930
H    -3.4870728    3.1412239   -0.6474055
C    -1.3741895    3.2147896   -0.4364030
H    -1.2997315    4.2742019   -0.6578144
C    -0.1719488    2.4994090   -0.1734588
C    -0.2043917    1.1018437    0.0192689
C     1.0513491    3.2042560   -0.0676222
H     1.0427344    4.2819499   -0.1896997
C     2.1942091    2.5487446    0.2579577
H     3.1168527    3.0912848    0.4334727
C     2.2216473    1.1336562    0.2934990
C     1.0486931    0.3945528    0.0302412
C     3.4483363    0.4614633    0.5573939
H     4.3095794    1.0606054    0.8334846
C     3.5427346   -0.8855926    0.4749463
H     4.4731467   -1.3939704    0.7038822
C     2.4490052   -1.6474447   -0.0196319
C     1.2150704   -1.0057258   -0.3013573
C     0.2531113   -1.7434440   -1.0216591
H    -0.6541356   -1.2535051   -1.3462847
C     0.4494193   -3.0628597   -1.3413779
H    -0.3083162   -3.5944309   -1.9054060
C     1.6251726   -3.7207967   -0.9552541
H     1.7670048   -4.7687404   -1.1927019
C     2.6109872   -3.0144177   -0.3183050
H     3.5525612   -3.4902813   -0.0646367
Bq        -0.7691189971    -1.2292048842    -0.4039286108
Bq        -0.5299484144    -1.0695109776    -0.9305169591
Bq        -0.8089807609    -1.2558205353    -0.3161638861
Bq        -0.4900866506    -1.0428953265    -1.0182816838
Bq        -0.8488425247    -1.2824361864    -0.2283991614
Bq        -0.4502248868    -1.0162796754    -1.1060464085
Bq        -0.6495337058    -1.1493579309    -0.6672227850
Bq        -0.7004019429    -1.0795805993    -0.5552248098
Bq        -0.6206784154    -1.0263492971    -0.7307542592
Bq        -0.7402637067    -1.1061962504    -0.4674600851
Bq        -0.5808166516    -0.9997336460    -0.8185189839
Bq        -0.7801254705    -1.1328119015    -0.3796953604
Bq        -0.5409548878    -0.9731179949    -0.9062837086
Bq        -0.8199872343    -1.1594275526    -0.2919306357
Bq        -0.5010931240    -0.9465023438    -0.9940484334
Bq        -0.8598489981    -1.1860432037    -0.2041659109
Bq        -0.4612313602    -0.9198866927    -1.0818131581
Bq        -0.6605401791    -1.0529649482    -0.6429895345
Bq        -0.7114084163    -0.9831876166    -0.5309915593
Bq        -0.6316848887    -0.9299563144    -0.7065210088
Bq        -0.7512701801    -1.0098032677    -0.4432268346
Bq        -0.5918231249    -0.9033406633    -0.7942857335
Bq        -0.7911319439    -1.0364189188    -0.3554621099
Bq        -0.5519613612    -0.8767250122    -0.8820504582
Bq        -0.8309937077    -1.0630345699    -0.2676973852
Bq        -0.5120995974    -0.8501093610    -0.9698151829
Bq        -0.8708554715    -1.0896502210    -0.1799326605
Bq        -0.4722378336    -0.8234937099    -1.0575799076
Bq        -0.6715466525    -0.9565719655    -0.6187562840
Bq        -0.7224148897    -0.8867946339    -0.5067583089
Bq        -0.6426913621    -0.8335633317    -0.6822877583
Bq        -0.7622766535    -0.9134102850    -0.4189935842
Bq        -0.6028295983    -0.8069476805    -0.7700524830
Bq        -0.8021384172    -0.9400259361    -0.3312288595
Bq        -0.5629678345    -0.7803320294    -0.8578172077
Bq        -0.8420001810    -0.9666415872    -0.2434641347
Bq        -0.5231060707    -0.7537163783    -0.9455819324
Bq        -0.8818619448    -0.9932572383    -0.1556994100
Bq        -0.4832443069    -0.7271007272    -1.0333466572
Bq        -0.6825531259    -0.8601789828    -0.5945230336
Bq        -0.7334213630    -0.7904016512    -0.4825250584
Bq        -0.6536978355    -0.7371703489    -0.6580545078
Bq        -0.7732831268    -0.8170173023    -0.3947603337
Bq        -0.6138360717    -0.7105546978    -0.7458192326
Bq        -0.8131448906    -0.8436329534    -0.3069956090
Bq        -0.5739743079    -0.6839390467    -0.8335839573
Bq        -0.8530066544    -0.8702486045    -0.2192308843
Bq        -0.5341125441    -0.6573233956    -0.9213486820
Bq        -0.8928684182    -0.8968642556    -0.1314661596
Bq        -0.4942507803    -0.6307077445    -1.0091134067
Bq        -0.6935595993    -0.7637860000    -0.5702897831
Bq        -0.7444278364    -0.6940086684    -0.4582918080
Bq        -0.6647043088    -0.6407773662    -0.6338212574
Bq        -0.7842896002    -0.7206243196    -0.3705270832
Bq        -0.6248425451    -0.6141617151    -0.7215859821
Bq        -0.8241513640    -0.7472399707    -0.2827623585
Bq        -0.5849807813    -0.5875460640    -0.8093507068
Bq        -0.8640131278    -0.7738556218    -0.1949976338
Bq        -0.5451190175    -0.5609304129    -0.8971154315
Bq        -0.9038748916    -0.8004712729    -0.1072329091
Bq        -0.5052572537    -0.5343147618    -0.9848801562
Bq        -0.7045660726    -0.6673930173    -0.5460565327
Bq        -0.7554343098    -0.5976156857    -0.4340585575
Bq        -0.6757107822    -0.5443843835    -0.6095880069
Bq        -0.7952960736    -0.6242313368    -0.3462938328
Bq        -0.6358490184    -0.5177687324    -0.6973527316
Bq        -0.8351578374    -0.6508469879    -0.2585291081
Bq        -0.5959872546    -0.4911530813    -0.7851174564
Bq        -0.8750196012    -0.6774626391    -0.1707643834
Bq        -0.5561254909    -0.4645374302    -0.8728821811
Bq        -0.9148813649    -0.7040782902    -0.0829996587
Bq        -0.5162637271    -0.4379217791    -0.9606469058
Bq        -0.7155725460    -0.5710000346    -0.5218232822
Bq        -0.7664407832    -0.5012227030    -0.4098253070
Bq        -0.6867172556    -0.4479914008    -0.5853547565
Bq        -0.8063025469    -0.5278383541    -0.3220605823
Bq        -0.6468554918    -0.4213757497    -0.6731194812
Bq        -0.8461643107    -0.5544540052    -0.2342958576
Bq        -0.6069937280    -0.3947600986    -0.7608842059
Bq        -0.8860260745    -0.5810696563    -0.1465311329
Bq        -0.5671319642    -0.3681444475    -0.8486489306
Bq        -0.9258878383    -0.6076853074    -0.0587664082
Bq        -0.5272702004    -0.3415287964    -0.9364136553
Bq        -0.7265790194    -0.4746070519    -0.4975900318
Bq        -0.7774472565    -0.4048297203    -0.3855920566
Bq        -0.6977237290    -0.3515984181    -0.5611215060
Bq        -0.8173090203    -0.4314453714    -0.2978273319
Bq        -0.6578619652    -0.3249827670    -0.6488862307
Bq        -0.8571707841    -0.4580610225    -0.2100626072
Bq        -0.6180002014    -0.2983671159    -0.7366509554
Bq        -0.8970325479    -0.4846766736    -0.1222978824
Bq        -0.5781384376    -0.2717514648    -0.8244156801
Bq        -0.9368943117    -0.5112923247    -0.0345331577
Bq        -0.5382766738    -0.2451358137    -0.9121804049
Bq        -0.7375854927    -0.3782140692    -0.4733567813
Bq        -0.7884537299    -0.3084367376    -0.3613588061
Bq        -0.7087302023    -0.2552054354    -0.5368882556
Bq        -0.8283154937    -0.3350523887    -0.2735940814
Bq        -0.6688684385    -0.2285897843    -0.6246529803
Bq        -0.8681772575    -0.3616680398    -0.1858293567
Bq        -0.6290066748    -0.2019741332    -0.7124177050
Bq        -0.9080390213    -0.3882836909    -0.0980646320
Bq        -0.5891449110    -0.1753584821    -0.8001824297
Bq        -0.9479007851    -0.4148993420    -0.0102999073
Bq        -0.5492831472    -0.1487428310    -0.8879471544
Bq        -0.7485919661    -0.2818210865    -0.4491235308
Bq        -0.7994602033    -0.2120437549    -0.3371255557
Bq        -0.7197366757    -0.1588124527    -0.5126550051
Bq        -0.8393219671    -0.2386594060    -0.2493608310
Bq        -0.6798749119    -0.1321968016    -0.6004197298
Bq        -0.8791837309    -0.2652750571    -0.1615961062
Bq        -0.6400131481    -0.1055811505    -0.6881844545
Bq        -0.9190454946    -0.2918907082    -0.0738313815
Bq        -0.6001513843    -0.0789654993    -0.7759491792
Bq        -0.9589072584    -0.3185063593     0.0139333432
Bq        -0.5602896206    -0.0523498482    -0.8637139039
Bq        -0.7595984395    -0.1854281038    -0.4248902804
Bq        -0.8104666767    -0.1156507722    -0.3128923052
Bq        -0.7307431491    -0.0624194700    -0.4884217546
Bq        -0.8503284404    -0.1422664233    -0.2251275805
Bq        -0.6908813853    -0.0358038189    -0.5761864794
Bq        -0.8901902042    -0.1688820744    -0.1373628558
Bq        -0.6510196215    -0.0091881677    -0.6639512041
Bq        -0.9300519680    -0.1954977255    -0.0495981311
Bq        -0.6111578577     0.0174274834    -0.7517159288
Bq        -0.9699137318    -0.2221133766     0.0381665936
Bq        -0.5712960939     0.0440431345    -0.8394806535
Bq        -0.7706049129    -0.0890351211    -0.4006570299
Bq        -0.1690941347    -4.9352999078    -1.4832014405
Bq        -0.0893706072    -4.8820686056    -1.6587308899
Bq        -0.2089558985    -4.9619155589    -1.3954367158
Bq        -0.0495088434    -4.8554529545    -1.7464956146
Bq        -0.2488176623    -4.9885312100    -1.3076719911
Bq        -0.0096470796    -4.8288373034    -1.8342603393
Bq        -0.2886794261    -5.0151468611    -1.2199072663
Bq         0.0302146842    -4.8022216522    -1.9220250640
Bq        -0.3285411899    -5.0417625122    -1.1321425416
Bq         0.0700764480    -4.7756060011    -2.0097897888
Bq        -0.1292323709    -4.9086842567    -1.5709661652
Bq        -0.1801006081    -4.8389069251    -1.4589681900
Bq        -0.1003770805    -4.7856756229    -1.6344976395
Bq        -0.2199623719    -4.8655225762    -1.3712034653
Bq        -0.0605153167    -4.7590599717    -1.7222623642
Bq        -0.2598241357    -4.8921382273    -1.2834387406
Bq        -0.0206535530    -4.7324443206    -1.8100270889
Bq        -0.2996858995    -4.9187538784    -1.1956740159
Bq         0.0192082108    -4.7058286695    -1.8977918136
Bq        -0.3395476633    -4.9453695295    -1.1079092912
Bq         0.0590699746    -4.6792130184    -1.9855565383
Bq        -0.1402388443    -4.8122912740    -1.5467329147
Bq        -0.1911070815    -4.7425139424    -1.4347349396
Bq        -0.1113835539    -4.6892826401    -1.6102643890
Bq        -0.2309688453    -4.7691295935    -1.3469702149
Bq        -0.0715217901    -4.6626669890    -1.6980291137
Bq        -0.2708306091    -4.7957452446    -1.2592054901
Bq        -0.0316600263    -4.6360513379    -1.7857938384
Bq        -0.3106923728    -4.8223608957    -1.1714407654
Bq         0.0082017375    -4.6094356868    -1.8735585631
Bq        -0.3505541366    -4.8489765468    -1.0836760407
Bq         0.0480635012    -4.5828200357    -1.9613232878
Bq        -0.1512453177    -4.7158982912    -1.5224996643
Bq        -0.2021135548    -4.6461209596    -1.4105016891
Bq        -0.1223900273    -4.5928896574    -1.5860311385
Bq        -0.2419753186    -4.6727366108    -1.3227369644
Bq        -0.0825282635    -4.5662740063    -1.6737958632
Bq        -0.2818370824    -4.6993522619    -1.2349722397
Bq        -0.0426664997    -4.5396583552    -1.7615605880
Bq        -0.3216988462    -4.7259679130    -1.1472075150
Bq        -0.0028047359    -4.5130427041    -1.8493253127
Bq        -0.3615606100    -4.7525835641    -1.0594427903
Bq         0.0370570279    -4.4864270530    -1.9370900374
Bq        -0.1622517911    -4.6195053085    -1.4982664138
Bq        -0.2131200282    -4.5497279769    -1.3862684387
Bq        -0.1333965006    -4.4964966747    -1.5617978881
Bq        -0.2529817920    -4.5763436280    -1.2985037139
Bq        -0.0935347369    -4.4698810236    -1.6495626128
Bq        -0.2928435558    -4.6029592791    -1.2107389892
Bq        -0.0536729731    -4.4432653725    -1.7373273375
Bq        -0.3327053196    -4.6295749303    -1.1229742645
Bq        -0.0138112093    -4.4166497214    -1.8250920622
Bq        -0.3725670834    -4.6561905814    -1.0352095398
Bq         0.0260505545    -4.3900340703    -1.9128567869
Bq        -0.1732582644    -4.5231123258    -1.4740331634
Bq        -0.2241265016    -4.4533349942    -1.3620351882
Bq        -0.1444029740    -4.4001036920    -1.5375646376
Bq        -0.2639882654    -4.4799506453    -1.2742704635
Bq        -0.1045412102    -4.3734880409    -1.6253293623
Bq        -0.3038500292    -4.5065662964    -1.1865057388
Bq        -0.0646794464    -4.3468723898    -1.7130940870
Bq        -0.3437117930    -4.5331819475    -1.0987410141
Bq        -0.0248176827    -4.3202567387    -1.8008588118
Bq        -0.3835735567    -4.5597975986    -1.0109762893
Bq         0.0150440811    -4.2936410876    -1.8886235365
Bq        -0.1842647378    -4.4267193431    -1.4497999129
Bq        -0.2351329750    -4.3569420115    -1.3378019377
Bq        -0.1554094474    -4.3037107093    -1.5133313872
Bq        -0.2749947388    -4.3835576626    -1.2500372130
Bq        -0.1155476836    -4.2770950582    -1.6010961119
Bq        -0.3148565025    -4.4101733137    -1.1622724883
Bq        -0.0756859198    -4.2504794071    -1.6888608366

1
2
3
4
5
6
7
8
9
10
11
12
13
14
15
16
17
18
19
20
21
22
23
24
25
26
27
28
29
30
31
32
33
34
35
36
37
38
39
40
41
42
43
44
45
46
47
48
49
50
51
52
53
54
55
56
57
58
59
60
61
62
63
64
65
66
67
68
69
70
71
72
73
74
75
76
77
78
79
80
81
82
83
84
85
86
87
88
89
90
91
92
93
94
95
96
97
98
99
100
101
102
103
104
105
106
107
108
109
110
111
112
113
114
115
116
117
118
119
120
121
122
123
124
125
126
127
128
129
130
131
132
133
134
135
136
137
138
139
140
141
142
143
144
145
146
147
148
149
150
151
152
153
154
155
156
157
158
159
160
161
162
163
164
165
166
167
168
169
170
171
172
173
174
175
176
177
178
179
180
181
182
183
184
185
186
187
188
189
190
191
192
193
194
195
196
197
198
199
200
201
202
203
204
205
206
207
208
209
210
211
212
213
214
215
216
217
218
219
220
221
222
223
224
225
226
227
228
229
230
231
232
233
234
235
236

