%nproc=8
%mem=1000MB
# rb3lyp/6-311+g** NMR geom=connectivity

Title

0 1
C    -4.0500558   -0.5771862    0.8136712
H    -5.0263804   -1.0082727    1.0024760
C    -3.9381552    0.6617804    0.2400876
H    -4.8252424    1.2338890   -0.0111295
C    -2.6768410    1.2433246    0.0057578
C    -1.4974121    0.5051527    0.2848253
C    -1.6508332   -0.7338728    0.9404026
H    -0.7713646   -1.2730967    1.2633753
C    -2.8898548   -1.2624035    1.1994307
H    -2.9683706   -2.2124563    1.7152676
C    -2.5773185    2.5963696   -0.4192930
H    -3.4870728    3.1412239   -0.6474055
C    -1.3741895    3.2147896   -0.4364030
H    -1.2997315    4.2742019   -0.6578144
C    -0.1719488    2.4994090   -0.1734588
C    -0.2043917    1.1018437    0.0192689
C     1.0513491    3.2042560   -0.0676222
H     1.0427344    4.2819499   -0.1896997
C     2.1942091    2.5487446    0.2579577
H     3.1168527    3.0912848    0.4334727
C     2.2216473    1.1336562    0.2934990
C     1.0486931    0.3945528    0.0302412
C     3.4483363    0.4614633    0.5573939
H     4.3095794    1.0606054    0.8334846
C     3.5427346   -0.8855926    0.4749463
H     4.4731467   -1.3939704    0.7038822
C     2.4490052   -1.6474447   -0.0196319
C     1.2150704   -1.0057258   -0.3013573
C     0.2531113   -1.7434440   -1.0216591
H    -0.6541356   -1.2535051   -1.3462847
C     0.4494193   -3.0628597   -1.3413779
H    -0.3083162   -3.5944309   -1.9054060
C     1.6251726   -3.7207967   -0.9552541
H     1.7670048   -4.7687404   -1.1927019
C     2.6109872   -3.0144177   -0.3183050
H     3.5525612   -3.4902813   -0.0646367
Bq         2.7183436029    -0.0593939501     0.9073567906
Bq         2.7045797838     0.0453987504     1.0013198004
Bq         2.7335316899     0.0355717802     0.8036705713
Bq         2.6901038308     0.0503122355     1.1001444150
Bq         2.7480076429     0.0306582951     0.7048459567
Bq         2.6756278777     0.0552257205     1.1989690296
Bq         2.7624835960     0.0257448100     0.6060213421
Bq         2.6611519247     0.0601392056     1.2977936442
Bq         2.7769595490     0.0208313250     0.5071967275
Bq         2.6466759716     0.0650526907     1.3966182588
Bq         2.7914355021     0.0159178399     0.4083721129
Bq         2.7190557368     0.0404852653     0.9024951858
Bq         2.7052919177     0.1452779658     0.9964581957
Bq         2.7342438238     0.1354509956     0.7988089665
Bq         2.6908159647     0.1501914508     1.0952828102
Bq         2.7487197769     0.1305375105     0.6999843519
Bq         2.6763400117     0.1551049359     1.1941074248
Bq         2.7631957299     0.1256240254     0.6011597373
Bq         2.6618640586     0.1600184210     1.2929320394
Bq         2.7776716830     0.1207105403     0.5023351227
Bq         2.6473881056     0.1649319061     1.3917566540
Bq         2.7921476360     0.1157970553     0.4035105081
Bq         2.7197678708     0.1403644807     0.8976335811
Bq         2.7060040517     0.2451571811     0.9915965909
Bq         2.7349559578     0.2353302110     0.7939473617
Bq         2.6915280986     0.2500706662     1.0904212055
Bq         2.7494319108     0.2304167259     0.6951227471
Bq         2.6770521456     0.2549841513     1.1892458201
Bq         2.7639078639     0.2255032408     0.5962981326
Bq         2.6625761926     0.2598976364     1.2880704346
Bq         2.7783838169     0.2205897557     0.4974735180
Bq         2.6481002395     0.2648111215     1.3868950492
Bq         2.7928597700     0.2156762706     0.3986489034
Bq         2.7204800047     0.2402436960     0.8927719763
Bq         2.7067161856     0.3450363965     0.9867349861
Bq         2.7356680917     0.3352094263     0.7890857570
Bq         2.6922402326     0.3499498816     1.0855596007
Bq         2.7501440448     0.3302959413     0.6902611424
Bq         2.6777642795     0.3548633667     1.1843842153
Bq         2.7646199978     0.3253824562     0.5914365278
Bq         2.6632883265     0.3597768518     1.2832088299
Bq         2.7790959509     0.3204689711     0.4926119132
Bq         2.6488123735     0.3646903368     1.3820334445
Bq         2.7935719039     0.3155554860     0.3937872986
Bq         2.7211921387     0.3401229114     0.8879103715
Bq         2.7074283196     0.4449156119     0.9818733814
Bq         2.7363802257     0.4350886417     0.7842241522
Bq         2.6929523665     0.4498290970     1.0806979959
Bq         2.7508561787     0.4301751566     0.6853995376
Bq         2.6784764135     0.4547425820     1.1795226105
Bq         2.7653321317     0.4252616716     0.5865749230
Bq         2.6640004604     0.4596560671     1.2783472251
Bq         2.7798080848     0.4203481865     0.4877503084
Bq         2.6495245074     0.4645695522     1.3771718397
Bq         2.7942840378     0.4154347014     0.3889256938
Bq         2.7219042726     0.4400021268     0.8830487668
Bq         2.7081404535     0.5447948273     0.9770117766
Bq         2.7370923596     0.5349678571     0.7793625474
Bq         2.6936645005     0.5497083123     1.0758363912
Bq         2.7515683126     0.5300543720     0.6805379328
Bq         2.6791885474     0.5546217974     1.1746610058
Bq         2.7660442657     0.5251408869     0.5817133183
Bq         2.6647125944     0.5595352825     1.2734856203
Bq         2.7805202187     0.5202274018     0.4828887037
Bq         2.6502366413     0.5644487676     1.3723102349
Bq         2.7949961718     0.5153139168     0.3840640891
Bq         2.7226164066     0.5398813422     0.8781871620
Bq         2.7088525875     0.6446740426     0.9721501718
Bq         2.7378044935     0.6348470725     0.7745009427
Bq         2.6943766344     0.6495875277     1.0709747864
Bq         2.7522804466     0.6299335874     0.6756763281
Bq         2.6799006814     0.6545010128     1.1697994010
Bq         2.7667563996     0.6250201023     0.5768517135
Bq         2.6654247283     0.6594144979     1.2686240156
Bq         2.7812323527     0.6201066172     0.4780270989
Bq         2.6509487753     0.6643279830     1.3674486302
Bq         2.7957083057     0.6151931321     0.3792024843
Bq         2.7233285405     0.6397605576     0.8733255572
Bq         2.7095647214     0.7445532580     0.9672885671
Bq         2.7385166275     0.7347262878     0.7696393379
Bq         2.6950887684     0.7494667431     1.0661131816
Bq         2.7529925805     0.7298128028     0.6708147233
Bq         2.6806128153     0.7543802282     1.1649377962
Bq         2.7674685336     0.7248993177     0.5719901087
Bq         2.6661368623     0.7592937133     1.2637624108
Bq         2.7819444866     0.7199858326     0.4731654941
Bq         2.6516609092     0.7642071983     1.3625870254
Bq         2.7964204397     0.7150723475     0.3743408795
Bq         2.7240406744     0.7396397729     0.8684639525
Bq         2.7102768553     0.8444324734     0.9624269623
Bq         2.7392287614     0.8346055032     0.7647777331
Bq         2.6958009023     0.8493459585     1.0612515769
Bq         2.7537047145     0.8296920181     0.6659531185
Bq         2.6813249493     0.8542594436     1.1600761915
Bq         2.7681806675     0.8247785331     0.5671285040
Bq         2.6668489962     0.8591729286     1.2589008060
Bq         2.7826566206     0.8198650480     0.4683038894
Bq         2.6523730432     0.8640864137     1.3577254206
Bq         2.7971325736     0.8149515629     0.3694792748
Bq         2.7247528084     0.8395189883     0.8636023477
Bq         2.7109889893     0.9443116888     0.9575653575
Bq         2.7399408954     0.9344847186     0.7599161284
Bq         2.6965130362     0.9492251739     1.0563899721
Bq         2.7544168484     0.9295712335     0.6610915138
Bq         2.6820370832     0.9541386589     1.1552145867
Bq         2.7688928015     0.9246577484     0.5622668992
Bq         2.6675611301     0.9590521440     1.2540392013
Bq         2.7833687545     0.9197442634     0.4634422846
Bq         2.6530851771     0.9639656291     1.3528638159
Bq         2.7978447075     0.9148307783     0.3646176700
Bq         2.7254649423     0.9393982037     0.8587407429
Bq         2.7117011232     1.0441909041     0.9527037528
Bq         2.7406530293     1.0343639340     0.7550545236
Bq         2.6972251702     1.0491043892     1.0515283673
Bq         2.7551289824     1.0294504489     0.6562299090
Bq         2.6827492171     1.0540178743     1.1503529819
Bq         2.7696049354     1.0245369638     0.5574052944
Bq         2.6682732641     1.0589313594     1.2491775965
Bq         2.7840808884     1.0196234787     0.4585806798
Bq         2.6537973110     1.0638448445     1.3480022111
Bq         2.7985568415     1.0147099936     0.3597560652
Bq         2.7261770763     1.0392774191     0.8538791382
Bq         2.7124132572     1.1440701195     0.9478421480
Bq         2.7413651633     1.1342431494     0.7501929188
Bq         2.6979373041     1.1489836046     1.0466667626
Bq         2.7558411163     1.1293296643     0.6513683042
Bq         2.6834613511     1.1538970897     1.1454913772
Bq         2.7703170693     1.1244161792     0.5525436897
Bq         2.6689853980     1.1588105748     1.2443159917
Bq         2.7847930224     1.1195026941     0.4537190751
Bq         2.6545094450     1.1637240599     1.3431406063
Bq         2.7992689754     1.1145892090     0.3548944605
Bq         2.7268892102     1.1391566344     0.8490175334
Bq         2.7131253911     1.2439493349     0.9429805432
Bq         2.7420772972     1.2341223647     0.7453313141
Bq         2.6986494381     1.2488628200     1.0418051578
Bq         2.7565532502     1.2292088797     0.6465066995
Bq         2.6841734850     1.2537763051     1.1406297724
Bq         2.7710292033     1.2242953946     0.5476820849
Bq         2.6696975320     1.2586897901     1.2394543870
Bq         2.7855051563     1.2193819095     0.4488574703
Bq         2.6552215789     1.2636032752     1.3382790016
Bq         2.7999811094     1.2144684244     0.3500328557
Bq         2.7276013441     1.2390358498     0.8441559286
Bq         2.7138375250     1.3438285503     0.9381189385
Bq         2.7427894311     1.3340015801     0.7404697093
Bq         2.6993615720     1.3487420354     1.0369435530
Bq         2.7572653842     1.3290880950     0.6416450947
Bq         2.6848856190     1.3536555204     1.1357681676
Bq         2.7717413372     1.3241746099     0.5428204801
Bq         2.6704096659     1.3585690055     1.2345927822
Bq         2.7862172903     1.3192611249     0.4439958655
Bq         2.6559337129     1.3634824906     1.3334173968
Bq         2.8006932433     1.3143476398     0.3451712510
Bq         2.7283134781     1.3389150652     0.8392943239
Bq         2.7145496590     1.4437077657     0.9332573337
Bq         2.7435015651     1.4338807955     0.7356081045
Bq         2.7000737059     1.4486212507     1.0320819483
Bq         2.7579775181     1.4289673104     0.6367834899
Bq         2.6855977529     1.4535347358     1.1309065629
Bq         2.7724534712     1.4240538253     0.5379588754
Bq         2.6711217999     1.4584482209     1.2297311774
Bq         2.7869294242     1.4191403402     0.4391342608
Bq         2.6566458468     1.4633617060     1.3285557920
Bq         2.8014053773     1.4142268552     0.3403096462
Bq         2.7290256120     1.4387942806     0.8344327191
Bq         2.7152617929     1.5435869810     0.9283957289
Bq         2.7442136990     1.5337600109     0.7307464998
Bq         2.7007858399     1.5485004661     1.0272203435
Bq         2.7586896521     1.5288465258     0.6319218852
Bq         2.6863098868     1.5534139512     1.1260449581
Bq         2.7731656051     1.5239330407     0.5330972706
Bq         2.6718339338     1.5583274363     1.2248695727
Bq         2.7876415582     1.5190195556     0.4342726560
Bq         2.6573579808     1.5632409214     1.3236941873
Bq         2.8021175112     1.5141060705     0.3354480414
Bq         2.7297377460     1.5386734959     0.8295711143
Bq         2.7159739269     1.6434661964     0.9235341242
Bq         2.7449258330     1.6336392262     0.7258848950
Bq         2.7014979738     1.6483796815     1.0223587387
Bq         2.7594017860     1.6287257412     0.6270602804
Bq         2.6870220208     1.6532931666     1.1211833533
Bq         2.7738777390     1.6238122561     0.5282356658
Bq         2.6725460677     1.6582066517     1.2200079679
Bq         2.7883536921     1.6188987710     0.4294110512
Bq         2.6580701147     1.6631201367     1.3188325825
Bq         2.8028296451     1.6139852859     0.3305864367
Bq         2.7304498799     1.6385527113     0.8247095096
Bq         2.7166860608     1.7433454118     0.9186725194
Bq         2.7456379669     1.7335184416     0.7210232902
Bq         2.7022101078     1.7482588969     1.0174971340
Bq         2.7601139199     1.7286049565     0.6221986756
Bq         2.6877341547     1.7531723819     1.1163217486
Bq         2.7745898730     1.7236914715     0.5233740611
Bq         2.6732582017     1.7580858670     1.2151463631
Bq         2.7890658260     1.7187779864     0.4245494465
Bq         2.6587822486     1.7629993521     1.3139709777
Bq         2.8035417791     1.7138645013     0.3257248319
Bq         2.7311620139     1.7384319267     0.8198479048
Bq         2.7173981948     1.8432246272     0.9138109146

1
2
3
4
5
6
7
8
9
10
11
12
13
14
15
16
17
18
19
20
21
22
23
24
25
26
27
28
29
30
31
32
33
34
35
36
37
38
39
40
41
42
43
44
45
46
47
48
49
50
51
52
53
54
55
56
57
58
59
60
61
62
63
64
65
66
67
68
69
70
71
72
73
74
75
76
77
78
79
80
81
82
83
84
85
86
87
88
89
90
91
92
93
94
95
96
97
98
99
100
101
102
103
104
105
106
107
108
109
110
111
112
113
114
115
116
117
118
119
120
121
122
123
124
125
126
127
128
129
130
131
132
133
134
135
136
137
138
139
140
141
142
143
144
145
146
147
148
149
150
151
152
153
154
155
156
157
158
159
160
161
162
163
164
165
166
167
168
169
170
171
172
173
174
175
176
177
178
179
180
181
182
183
184
185
186
187
188
189
190
191
192
193
194
195
196
197
198
199
200
201
202
203
204
205
206
207
208
209
210
211
212
213
214
215
216
217
218
219
220
221
222
223
224
225
226
227
228
229
230
231
232
233
234
235
236

