%nproc=8
%mem=1000MB
# rb3lyp/6-311+g** NMR geom=connectivity

Title

0 1
C    -4.0500558   -0.5771862    0.8136712
H    -5.0263804   -1.0082727    1.0024760
C    -3.9381552    0.6617804    0.2400876
H    -4.8252424    1.2338890   -0.0111295
C    -2.6768410    1.2433246    0.0057578
C    -1.4974121    0.5051527    0.2848253
C    -1.6508332   -0.7338728    0.9404026
H    -0.7713646   -1.2730967    1.2633753
C    -2.8898548   -1.2624035    1.1994307
H    -2.9683706   -2.2124563    1.7152676
C    -2.5773185    2.5963696   -0.4192930
H    -3.4870728    3.1412239   -0.6474055
C    -1.3741895    3.2147896   -0.4364030
H    -1.2997315    4.2742019   -0.6578144
C    -0.1719488    2.4994090   -0.1734588
C    -0.2043917    1.1018437    0.0192689
C     1.0513491    3.2042560   -0.0676222
H     1.0427344    4.2819499   -0.1896997
C     2.1942091    2.5487446    0.2579577
H     3.1168527    3.0912848    0.4334727
C     2.2216473    1.1336562    0.2934990
C     1.0486931    0.3945528    0.0302412
C     3.4483363    0.4614633    0.5573939
H     4.3095794    1.0606054    0.8334846
C     3.5427346   -0.8855926    0.4749463
H     4.4731467   -1.3939704    0.7038822
C     2.4490052   -1.6474447   -0.0196319
C     1.2150704   -1.0057258   -0.3013573
C     0.2531113   -1.7434440   -1.0216591
H    -0.6541356   -1.2535051   -1.3462847
C     0.4494193   -3.0628597   -1.3413779
H    -0.3083162   -3.5944309   -1.9054060
C     1.6251726   -3.7207967   -0.9552541
H     1.7670048   -4.7687404   -1.1927019
C     2.6109872   -3.0144177   -0.3183050
H     3.5525612   -3.4902813   -0.0646367
Bq        -2.6904397996    -1.8840552051     2.2550209936
Bq        -2.6890238173    -2.0579860731     1.8948182060
Bq        -2.6907937952    -1.8405724881     2.3450716904
Bq        -2.6886698217    -2.1014687901     1.8047675092
Bq        -2.6911477908    -1.7970897711     2.4351223873
Bq        -2.6883158262    -2.1449515071     1.7147168123
Bq        -2.6915017863    -1.7536070540     2.5251730842
Bq        -2.6879618306    -2.1884342241     1.6246661154
Bq        -2.6897318085    -1.9710206391     2.0749195998
Bq        -2.6899148718    -1.8374865294     2.1214879157
Bq        -2.6892068806    -1.9244519634     1.9413865219
Bq        -2.6902688673    -1.7940038124     2.2115386125
Bq        -2.6888528850    -1.9679346804     1.8513358250
Bq        -2.6906228629    -1.7505210954     2.3015893094
Bq        -2.6884988895    -2.0114173974     1.7612851281
Bq        -2.6909768585    -1.7070383784     2.3916400063
Bq        -2.6881448939    -2.0549001144     1.6712344312
Bq        -2.6913308541    -1.6635556614     2.4816907032
Bq        -2.6877908983    -2.0983828314     1.5811837344
Bq        -2.6895608762    -1.8809692464     2.0314372188
Bq        -2.6897439395    -1.7474351367     2.0780055346
Bq        -2.6890359483    -1.8344005707     1.8979041409
Bq        -2.6900979351    -1.7039524197     2.1680562315
Bq        -2.6886819528    -1.8778832877     1.8078534440
Bq        -2.6904519306    -1.6604697027     2.2581069284
Bq        -2.6883279572    -1.9213660047     1.7178027471
Bq        -2.6908059262    -1.6169869857     2.3481576253
Bq        -2.6879739616    -1.9648487217     1.6277520502
Bq        -2.6911599218    -1.5735042687     2.4382083221
Bq        -2.6876199660    -2.0083314388     1.5377013533
Bq        -2.6893899439    -1.7909178537     1.9879548377
Bq        -2.6895730072    -1.6573837441     2.0345231536
Bq        -2.6888650161    -1.7443491781     1.8544217598
Bq        -2.6899270028    -1.6139010270     2.1245738505
Bq        -2.6885110205    -1.7878318951     1.7643710629
Bq        -2.6902809984    -1.5704183100     2.2146245474
Bq        -2.6881570249    -1.8313146121     1.6743203661
Bq        -2.6906349939    -1.5269355930     2.3046752442
Bq        -2.6878030293    -1.8747973291     1.5842696692
Bq        -2.6909889895    -1.4834528760     2.3947259411
Bq        -2.6874490338    -1.9182800461     1.4942189723
Bq        -2.6892190116    -1.7008664611     1.9444724567
Bq        -2.6894020749    -1.5673323514     1.9910407726
Bq        -2.6886940838    -1.6542977854     1.8109393788
Bq        -2.6897560705    -1.5238496344     2.0810914694
Bq        -2.6883400882    -1.6977805024     1.7208886819
Bq        -2.6901100661    -1.4803669174     2.1711421663
Bq        -2.6879860926    -1.7412632194     1.6308379850
Bq        -2.6904640617    -1.4368842004     2.2611928632
Bq        -2.6876320971    -1.7847459364     1.5407872881
Bq        -2.6908180572    -1.3934014834     2.3512435601
Bq        -2.6872781015    -1.8282286534     1.4507365913
Bq        -2.6890480794    -1.6108150684     1.9009900757
Bq        -2.6892311427    -1.4772809587     1.9475583915
Bq        -2.6885231515    -1.5642463927     1.7674569978
Bq        -2.6895851382    -1.4337982417     2.0376090884
Bq        -2.6881691559    -1.6077291097     1.6774063009
Bq        -2.6899391338    -1.3903155247     2.1276597853
Bq        -2.6878151604    -1.6512118267     1.5873556040
Bq        -2.6902931294    -1.3468328077     2.2177104822
Bq        -2.6874611648    -1.6946945437     1.4973049071
Bq        -2.6906471250    -1.3033500907     2.3077611791
Bq        -2.6871071692    -1.7381772607     1.4072542102
Bq        -2.6888771471    -1.5207636757     1.8575076946
Bq        -2.6890602104    -1.3872295660     1.9040760105
Bq        -2.6883522192    -1.4741950001     1.7239746167
Bq        -2.6894142060    -1.3437468490     1.9941267074
Bq        -2.6879982237    -1.5176777171     1.6339239198
Bq        -2.6897682015    -1.3002641320     2.0841774043
Bq        -2.6876442281    -1.5611604341     1.5438732230
Bq        -2.6901221971    -1.2567814150     2.1742281011
Bq        -2.6872902325    -1.6046431511     1.4538225261
Bq        -2.6904761927    -1.2132986980     2.2642787980
Bq        -2.6869362369    -1.6481258681     1.3637718292
Bq        -2.6887062148    -1.4307122830     1.8140253136
Bq        -2.6888892781    -1.2971781734     1.8605936295
Bq        -2.6881812870    -1.3841436074     1.6804922357
Bq        -2.6892432737    -1.2536954564     1.9506443263
Bq        -2.6878272914    -1.4276263244     1.5904415388
Bq        -2.6895972693    -1.2102127394     2.0406950232
Bq        -2.6874732958    -1.4711090414     1.5003908419
Bq        -2.6899512648    -1.1667300224     2.1307457201
Bq        -2.6871193002    -1.5145917584     1.4103401450
Bq        -2.6903052604    -1.1232473054     2.2207964170
Bq        -2.6867653047    -1.5580744754     1.3202894482
Bq        -2.6885352825    -1.3406608904     1.7705429326
Bq        -2.6887183458    -1.2071267807     1.8171112484
Bq        -2.6880103547    -1.2940922147     1.6370098547
Bq        -2.6890723414    -1.1636440637     1.9071619453
Bq        -2.6876563591    -1.3375749317     1.5469591578
Bq        -2.6894263370    -1.1201613467     1.9972126422
Bq        -2.6873023635    -1.3810576487     1.4569084609
Bq        -2.6897803326    -1.0766786297     2.0872633391
Bq        -2.6869483680    -1.4245403657     1.3668577640
Bq        -2.6901343281    -1.0331959127     2.1773140360
Bq        -2.6865943724    -1.4680230827     1.2768070671
Bq        -2.6883643503    -1.2506094977     1.7270605515
Bq        -2.6885474136    -1.1170753880     1.7736288674
Bq        -2.6878394224    -1.2040408220     1.5935274736
Bq        -2.6889014091    -1.0735926710     1.8636795643
Bq        -2.6874854268    -1.2475235390     1.5034767767
Bq        -2.6892554047    -1.0301099540     1.9537302612
Bq        -2.6871314313    -1.2910062560     1.4134260799
Bq        -2.6896094003    -0.9866272370     2.0437809580
Bq        -2.6867774357    -1.3344889731     1.3233753830
Bq        -2.6899633959    -0.9431445200     2.1338316549
Bq        -2.6864234401    -1.3779716901     1.2333246861
Bq        -2.6881934180    -1.1605581050     1.6835781705
Bq        -2.6883764813    -1.0270239954     1.7301464864
Bq        -2.6876684901    -1.1139894294     1.5500450926
Bq        -2.6887304769    -0.9835412784     1.8201971832
Bq        -2.6873144946    -1.1574721464     1.4599943957
Bq        -2.6890844724    -0.9400585614     1.9102478801
Bq        -2.6869604990    -1.2009548634     1.3699436988
Bq        -2.6894384680    -0.8965758443     2.0002985770
Bq        -2.6866065034    -1.2444375804     1.2798930019
Bq        -2.6897924636    -0.8530931273     2.0903492739
Bq        -2.6862525078    -1.2879202974     1.1898423051
Bq        -2.6880224857    -1.0705067124     1.6400957895
Bq        -2.6882055490    -0.9369726027     1.6866641053
Bq        -2.6874975579    -1.0239380367     1.5065627116
Bq        -2.6885595446    -0.8934898857     1.7767148022
Bq        -2.6871435623    -1.0674207537     1.4165120147
Bq        -2.6889135402    -0.8500071687     1.8667654991
Bq        -2.6867895667    -1.1109034707     1.3264613178
Bq        -2.6892675357    -0.8065244517     1.9568161960
Bq        -2.6864355711    -1.1543861877     1.2364106209
Bq        -2.6896215313    -0.7630417347     2.0468668929
Bq        -2.6860815756    -1.1978689047     1.1463599240
Bq        -2.6878515534    -0.9804553197     1.5966134084
Bq        -2.6880346167    -0.8469212100     1.6431817243
Bq        -2.6873266256    -0.9338866440     1.4630803305
Bq        -2.6883886123    -0.8034384930     1.7332324212
Bq        -2.6869726300    -0.9773693610     1.3730296336
Bq        -2.6887426079    -0.7599557760     1.8232831181
Bq        -2.6866186344    -1.0208520780     1.2829789368
Bq        -2.6890966035    -0.7164730590     1.9133338149
Bq        -2.6862646389    -1.0643347950     1.1929282399
Bq        -2.6894505990    -0.6729903420     2.0033845118
Bq        -2.6859106433    -1.1078175120     1.1028775430
Bq        -2.6876806212    -0.8904039270     1.5531310274
Bq        -2.6878636845    -0.7568698173     1.5996993433
Bq        -2.6871556933    -0.8438352514     1.4195979495
Bq        -2.6882176800    -0.7133871003     1.6897500401
Bq        -2.6868016977    -0.8873179684     1.3295472526
Bq        -2.6885716756    -0.6699043833     1.7798007370
Bq        -2.6864477022    -0.9308006854     1.2394965557
Bq        -2.6889256712    -0.6264216663     1.8698514339
Bq        -2.6860937066    -0.9742834024     1.1494458588
Bq        -2.6892796668    -0.5829389493     1.9599021308
Bq        -2.6857397110    -1.0177661194     1.0593951620
Bq        -2.6875096889    -0.8003525344     1.5096486464
Bq        -2.6876927522    -0.6668184247     1.5562169622
Bq        -2.6869847610    -0.7537838587     1.3761155685
Bq        -2.6880467478    -0.6233357077     1.6462676591
Bq        -2.6866307655    -0.7972665757     1.2860648716
Bq        -2.6884007433    -0.5798529907     1.7363183560
Bq        -2.6862767699    -0.8407492927     1.1960141747
Bq        -2.6887547389    -0.5363702737     1.8263690529
Bq        -2.6859227743    -0.8842320097     1.1059634778
Bq        -2.6891087345    -0.4928875567     1.9164197498
Bq        -2.6855687787    -0.9277147267     1.0159127809
Bq        -2.6873387566    -0.7103011417     1.4661662653
Bq        -2.6875218199    -0.5767670320     1.5127345812
Bq        -2.6868138288    -0.6637324660     1.3326331874
Bq        -2.6878758155    -0.5332843150     1.6027852781
Bq        -2.6864598332    -0.7072151830     1.2425824905
Bq        -2.6882298111    -0.4898015980     1.6928359750
Bq        -2.6861058376    -0.7506979000     1.1525317937
Bq        -2.6885838066    -0.4463188810     1.7828866718
Bq        -2.6857518420    -0.7941806170     1.0624810968
Bq        -2.6889378022    -0.4028361640     1.8729373687
Bq        -2.6853978465    -0.8376633340     0.9724303999
Bq        -2.6871678243    -0.6202497490     1.4226838843
Bq        -2.6873508876    -0.4867156393     1.4692522002
Bq        -2.6866428965    -0.5736810733     1.2891508064
Bq        -2.6877048832    -0.4432329223     1.5593028970
Bq        -2.6862889009    -0.6171637904     1.1991001095
Bq        -2.6880588788    -0.3997502053     1.6493535939
Bq        -2.6859349053    -0.6606465074     1.1090494126
Bq        -2.6884128744    -0.3562674883     1.7394042908
Bq        -2.6855809098    -0.7041292244     1.0189987158
Bq        -2.6887668699    -0.3127847713     1.8294549877
Bq        -2.6852269142    -0.7476119414     0.9289480189
Bq        -2.6869968921    -0.5301983563     1.3792015033
Bq        -2.6871799554    -0.3966642467     1.4257698191
Bq        -2.6864719642    -0.4836296807     1.2456684254
Bq        -2.6875339509    -0.3531815297     1.5158205160
Bq        -2.6861179686    -0.5271123977     1.1556177285
Bq        -2.6878879465    -0.3096988127     1.6058712129
Bq        -2.6857639731    -0.5705951147     1.0655670316
Bq        -2.6882419421    -0.2662160957     1.6959219098
Bq        -2.6854099775    -0.6140778317     0.9755163347
Bq        -2.6885959377    -0.2227333786     1.7859726067
Bq        -2.6850559819    -0.6575605487     0.8854656378
Bq        -2.6868259598    -0.4401469637     1.3357191222
Bq        -2.6870090231    -0.3066128540     1.3822874381
Bq        -2.6863010319    -0.3935782880     1.2021860443
Bq        -2.6873630187    -0.2631301370     1.4723381350
Bq        -2.6859470364    -0.4370610050     1.1121353475

1
2
3
4
5
6
7
8
9
10
11
12
13
14
15
16
17
18
19
20
21
22
23
24
25
26
27
28
29
30
31
32
33
34
35
36
37
38
39
40
41
42
43
44
45
46
47
48
49
50
51
52
53
54
55
56
57
58
59
60
61
62
63
64
65
66
67
68
69
70
71
72
73
74
75
76
77
78
79
80
81
82
83
84
85
86
87
88
89
90
91
92
93
94
95
96
97
98
99
100
101
102
103
104
105
106
107
108
109
110
111
112
113
114
115
116
117
118
119
120
121
122
123
124
125
126
127
128
129
130
131
132
133
134
135
136
137
138
139
140
141
142
143
144
145
146
147
148
149
150
151
152
153
154
155
156
157
158
159
160
161
162
163
164
165
166
167
168
169
170
171
172
173
174
175
176
177
178
179
180
181
182
183
184
185
186
187
188
189
190
191
192
193
194
195
196
197
198
199
200
201
202
203
204
205
206
207
208
209
210
211
212
213
214
215
216
217
218
219
220
221
222
223
224
225
226
227
228
229
230
231
232
233
234
235
236

