%nproc=8
%mem=1000MB
# rb3lyp/6-311+g** NMR geom=connectivity

Title

0 1
C    -4.0500558   -0.5771862    0.8136712
H    -5.0263804   -1.0082727    1.0024760
C    -3.9381552    0.6617804    0.2400876
H    -4.8252424    1.2338890   -0.0111295
C    -2.6768410    1.2433246    0.0057578
C    -1.4974121    0.5051527    0.2848253
C    -1.6508332   -0.7338728    0.9404026
H    -0.7713646   -1.2730967    1.2633753
C    -2.8898548   -1.2624035    1.1994307
H    -2.9683706   -2.2124563    1.7152676
C    -2.5773185    2.5963696   -0.4192930
H    -3.4870728    3.1412239   -0.6474055
C    -1.3741895    3.2147896   -0.4364030
H    -1.2997315    4.2742019   -0.6578144
C    -0.1719488    2.4994090   -0.1734588
C    -0.2043917    1.1018437    0.0192689
C     1.0513491    3.2042560   -0.0676222
H     1.0427344    4.2819499   -0.1896997
C     2.1942091    2.5487446    0.2579577
H     3.1168527    3.0912848    0.4334727
C     2.2216473    1.1336562    0.2934990
C     1.0486931    0.3945528    0.0302412
C     3.4483363    0.4614633    0.5573939
H     4.3095794    1.0606054    0.8334846
C     3.5427346   -0.8855926    0.4749463
H     4.4731467   -1.3939704    0.7038822
C     2.4490052   -1.6474447   -0.0196319
C     1.2150704   -1.0057258   -0.3013573
C     0.2531113   -1.7434440   -1.0216591
H    -0.6541356   -1.2535051   -1.3462847
C     0.4494193   -3.0628597   -1.3413779
H    -0.3083162   -3.5944309   -1.9054060
C     1.6251726   -3.7207967   -0.9552541
H     1.7670048   -4.7687404   -1.1927019
C     2.6109872   -3.0144177   -0.3183050
H     3.5525612   -3.4902813   -0.0646367
Bq         0.0329298653    -2.4642563868    -0.5612158850
Bq        -0.1468221849    -2.5638500000     0.1079405336
Bq         0.0586087297    -2.4500287278    -0.6568096591
Bq        -0.1725010492    -2.5780776591     0.2035343077
Bq         0.0842875940    -2.4358010688    -0.7524034332
Bq        -0.0441067276    -2.5069393639    -0.2744345628
Bq        -0.0734766425    -2.4221843289    -0.1651002491
Bq        -0.0221189138    -2.3937290109    -0.3562877973
Bq        -0.0991555068    -2.4364119879    -0.0695064750
Bq         0.0035599505    -2.3795013518    -0.4518815714
Bq        -0.1248343711    -2.4506396470     0.0260872991
Bq         0.0292388148    -2.3652736928    -0.5474753455
Bq        -0.1505132354    -2.4648673060     0.1216810732
Bq         0.0549176791    -2.3510460338    -0.6430691196
Bq        -0.1761920998    -2.4790949650     0.2172748473
Bq         0.0805965435    -2.3368183748    -0.7386628937
Bq        -0.0477977782    -2.4079566699    -0.2606940232
Bq        -0.0771676930    -2.3232016349    -0.1513597095
Bq        -0.0258099644    -2.2947463168    -0.3425472577
Bq        -0.1028465573    -2.3374292939    -0.0557659355
Bq        -0.0001311000    -2.2805186578    -0.4381410318
Bq        -0.1285254217    -2.3516569529     0.0398278386
Bq         0.0255477643    -2.2662909988    -0.5337348059
Bq        -0.1542042860    -2.3658846120     0.1354216127
Bq         0.0512266286    -2.2520633397    -0.6293285800
Bq        -0.1798831503    -2.3801122710     0.2310153868
Bq         0.0769054929    -2.2378356807    -0.7249223541
Bq        -0.0514888287    -2.3089739759    -0.2469534836
Bq        -0.0808587435    -2.2242189408    -0.1376191700
Bq        -0.0295010149    -2.1957636228    -0.3288067182
Bq        -0.1065376079    -2.2384465999    -0.0420253959
Bq        -0.0038221506    -2.1815359638    -0.4244004923
Bq        -0.1322164722    -2.2526742589     0.0535683782
Bq         0.0218567137    -2.1673083047    -0.5199942664
Bq        -0.1578953365    -2.2669019179     0.1491621523
Bq         0.0475355781    -2.1530806457    -0.6155880405
Bq        -0.1835742008    -2.2811295770     0.2447559264
Bq         0.0732144424    -2.1388529867    -0.7111818146
Bq        -0.0551798792    -2.2099912818    -0.2332129441
Bq        -0.0845497941    -2.1252362468    -0.1238786304
Bq        -0.0331920654    -2.0967809288    -0.3150661786
Bq        -0.1102286584    -2.1394639058    -0.0282848563
Bq        -0.0075132011    -2.0825532697    -0.4106599527
Bq        -0.1359075227    -2.1536915649     0.0673089178
Bq         0.0181656632    -2.0683256107    -0.5062537268
Bq        -0.1615863870    -2.1679192239     0.1629026919
Bq         0.0438445275    -2.0540979517    -0.6018475009
Bq        -0.1872652514    -2.1821468829     0.2584964660
Bq         0.0695233919    -2.0398702926    -0.6974412750
Bq        -0.0588709298    -2.1110085878    -0.2194724045
Bq        -0.0882408446    -2.0262535528    -0.1101380909
Bq        -0.0368831160    -1.9977982347    -0.3013256391
Bq        -0.1139197089    -2.0404812118    -0.0145443168
Bq        -0.0112042516    -1.9835705757    -0.3969194132
Bq        -0.1395985733    -2.0547088708     0.0810494573
Bq         0.0144746127    -1.9693429167    -0.4925131872
Bq        -0.1652774376    -2.0689365299     0.1766432314
Bq         0.0401534770    -1.9551152576    -0.5881069613
Bq        -0.1909563019    -2.0831641889     0.2722370055
Bq         0.0658323413    -1.9408875986    -0.6837007354
Bq        -0.0625619803    -2.0120258937    -0.2057318650
Bq        -0.0919318952    -1.9272708587    -0.0963975513
Bq        -0.0405741665    -1.8988155407    -0.2875850995
Bq        -0.1176107595    -1.9414985178    -0.0008037772
Bq        -0.0148953022    -1.8845878817    -0.3831788736
Bq        -0.1432896238    -1.9557261768     0.0947899969
Bq         0.0107835621    -1.8703602226    -0.4787726477
Bq        -0.1689684881    -1.9699538358     0.1903837710
Bq         0.0364624265    -1.8561325636    -0.5743664218
Bq        -0.1946473524    -1.9841814949     0.2859775451
Bq         0.0621412908    -1.8419049046    -0.6699601959
Bq        -0.0662530308    -1.9130431997    -0.1919913254
Bq        -0.0956229457    -1.8282881647    -0.0826570118
Bq        -0.0442652170    -1.7998328466    -0.2738445599
Bq        -0.1213018100    -1.8425158237     0.0129367623
Bq        -0.0185863527    -1.7856051876    -0.3694383340
Bq        -0.1469806743    -1.8567434828     0.1085305364
Bq         0.0070925116    -1.7713775286    -0.4650321081
Bq        -0.1726595387    -1.8709711418     0.2041243105
Bq         0.0327713759    -1.7571498696    -0.5606258822
Bq        -0.1983384030    -1.8851988008     0.2997180846
Bq         0.0584502402    -1.7429222105    -0.6562196563
Bq        -0.0699440814    -1.8140605057    -0.1782507858
Bq        -0.0993139962    -1.7293054707    -0.0689164722
Bq        -0.0479562676    -1.7008501526    -0.2601040204
Bq        -0.1249928605    -1.7435331297     0.0266773019
Bq        -0.0222774033    -1.6866224936    -0.3556977945
Bq        -0.1506717249    -1.7577607887     0.1222710760
Bq         0.0034014611    -1.6723948346    -0.4512915686
Bq        -0.1763505892    -1.7719884478     0.2178648501
Bq         0.0290803254    -1.6581671755    -0.5468853427
Bq        -0.2020294535    -1.7862161068     0.3134586242
Bq         0.0547591897    -1.6439395165    -0.6424791168
Bq        -0.0736351319    -1.7150778116    -0.1645102463
Bq        -0.1030050468    -1.6303227766    -0.0551759326
Bq        -0.0516473181    -1.6018674586    -0.2463634808
Bq        -0.1286839111    -1.6445504357     0.0404178415
Bq        -0.0259684538    -1.5876397995    -0.3419572549
Bq        -0.1543627754    -1.6587780947     0.1360116156
Bq        -0.0002895895    -1.5734121405    -0.4375510290
Bq        -0.1800416397    -1.6730057537     0.2316053897
Bq         0.0253892749    -1.5591844815    -0.5331448031
Bq        -0.2057205040    -1.6872334127     0.3271991637
Bq         0.0510681392    -1.5449568225    -0.6287385772
Bq        -0.0773261824    -1.6160951176    -0.1507697067
Bq        -0.1066960973    -1.5313400826    -0.0414353931
Bq        -0.0553383686    -1.5028847645    -0.2326229413
Bq        -0.1323749616    -1.5455677416     0.0541583810
Bq        -0.0296595043    -1.4886571055    -0.3282167154
Bq        -0.1580538259    -1.5597954007     0.1497521551
Bq        -0.0039806400    -1.4744294465    -0.4238104895
Bq        -0.1837326903    -1.5740230597     0.2453459292
Bq         0.0216982243    -1.4602017875    -0.5194042635
Bq        -0.2094115546    -1.5882507187     0.3409397033
Bq         0.0473770886    -1.4459741284    -0.6149980376
Bq        -0.0810172330    -1.5171124236    -0.1370291672
Bq        -0.1103871478    -1.4323573886    -0.0276948535
Bq        -0.0590294192    -1.4039020705    -0.2188824017
Bq        -0.1360660122    -1.4465850476     0.0678989206
Bq        -0.0333505549    -1.3896744115    -0.3144761758
Bq        -0.1617448765    -1.4608127066     0.1634926947
Bq        -0.0076716905    -1.3754467524    -0.4100699499
Bq        -0.1874237408    -1.4750403656     0.2590864688
Bq         0.0180071738    -1.3612190934    -0.5056637240
Bq        -0.2131026051    -1.4892680247     0.3546802429
Bq         0.0436860381    -1.3469914344    -0.6012574981
Bq        -0.0847082835    -1.4181297295    -0.1232886276
Bq        -0.1140781984    -1.3333746945    -0.0139543140
Bq        -0.0627204697    -1.3049193765    -0.2051418621
Bq        -0.1397570627    -1.3476023536     0.0816394601
Bq        -0.0370416054    -1.2906917174    -0.3007356362
Bq        -0.1654359270    -1.3618300126     0.1772332342
Bq        -0.0113627411    -1.2764640584    -0.3963294103
Bq        -0.1911147913    -1.3760576716     0.2728270083
Bq         0.0143161232    -1.2622363994    -0.4919231844
Bq        -0.2167936557    -1.3902853306     0.3684207824
Bq         0.0399949876    -1.2480087404    -0.5875169585
Bq        -0.0883993340    -1.3191470355    -0.1095480881
Bq        -0.1177692489    -1.2343920005    -0.0002137744
Bq        -0.0664115203    -1.2059366824    -0.1914013226
Bq        -0.1434481132    -1.2486196595     0.0953799997
Bq        -0.0407326559    -1.1917090234    -0.2869950967
Bq        -0.1691269775    -1.2628473185     0.1909737738
Bq        -0.0150537916    -1.1774813644    -0.3825888708
Bq        -0.1948058419    -1.2770749776     0.2865675479
Bq         0.0106250727    -1.1632537054    -0.4781826449
Bq        -0.2204847062    -1.2913026366     0.3821613220
Bq         0.0363039370    -1.1490260463    -0.5737764190
Bq        -0.0920903846    -1.2201643415    -0.0958075485
Bq        -0.1214602994    -1.1354093065     0.0135267652
Bq        -0.0701025708    -1.1069539884    -0.1776607830
Bq        -0.1471391638    -1.1496369655     0.1091205393
Bq        -0.0444237065    -1.0927263294    -0.2732545571
Bq        -0.1728180281    -1.1638646245     0.2047143134
Bq        -0.0187448421    -1.0784986703    -0.3688483312
Bq        -0.1984968924    -1.1780922835     0.3003080874
Bq         0.0069340222    -1.0642710113    -0.4644421053
Bq        -0.2241757567    -1.1923199426     0.3959018615
Bq         0.0326128865    -1.0500433523    -0.5600358794
Bq        -0.0957814351    -1.1211816474    -0.0820670089
Bq        -0.1251513500    -1.0364266124     0.0272673047
Bq        -0.0737936213    -1.0079712944    -0.1639202435
Bq        -0.1508302143    -1.0506542714     0.1228610788
Bq        -0.0481147570    -0.9937436353    -0.2595140176
Bq        -0.1765090786    -1.0648819305     0.2184548529
Bq        -0.0224358927    -0.9795159763    -0.3551077917
Bq        -0.2021879429    -1.0791095895     0.3140486270
Bq         0.0032429716    -0.9652883173    -0.4507015658
Bq        -0.2278668073    -1.0933372485     0.4096424011
Bq         0.0289218360    -0.9510606583    -0.5462953398
Bq        -0.0994724856    -1.0221989534    -0.0683264694
Bq        -0.1288424005    -0.9374439184     0.0410078443
Bq        -0.0774846719    -0.9089886003    -0.1501797039
Bq        -0.1545212648    -0.9516715774     0.1366016184
Bq        -0.0518058075    -0.8947609413    -0.2457734780
Bq        -0.1802001292    -0.9658992364     0.2321953925
Bq        -0.0261269432    -0.8805332823    -0.3413672521
Bq        -0.2058789935    -0.9801268955     0.3277891666
Bq        -0.0004480789    -0.8663056232    -0.4369610262
Bq        -0.2315578578    -0.9943545545     0.4233829407
Bq         0.0252307854    -0.8520779642    -0.5325548003
Bq        -0.1031635362    -0.9232162594    -0.0545859298
Bq        -0.1325334510    -0.8384612243     0.0547483838
Bq        -0.0811757224    -0.8100059063    -0.1364391644
Bq        -0.1582123154    -0.8526888834     0.1503421579
Bq        -0.0554968581    -0.7957782473    -0.2320329384
Bq        -0.1838911797    -0.8669165424     0.2459359320
Bq        -0.0298179938    -0.7815505882    -0.3276267125
Bq        -0.2095700440    -0.8811442014     0.3415297061
Bq        -0.0041391294    -0.7673229292    -0.4232204866
Bq        -0.2352489083    -0.8953718605     0.4371234802
Bq         0.0215397349    -0.7530952702    -0.5188142607
Bq        -0.1068545867    -0.8242335653    -0.0408453903
Bq        -0.1362245016    -0.7394785303     0.0684889234
Bq        -0.0848667729    -0.7110232123    -0.1226986248
Bq        -0.1619033659    -0.7537061893     0.1640826975
Bq        -0.0591879086    -0.6967955532    -0.2182923989
Bq        -0.1875822302    -0.7679338484     0.2596764716
Bq        -0.0335090443    -0.6825678942    -0.3138861730
Bq        -0.2132610945    -0.7821615074     0.3552702457

1
2
3
4
5
6
7
8
9
10
11
12
13
14
15
16
17
18
19
20
21
22
23
24
25
26
27
28
29
30
31
32
33
34
35
36
37
38
39
40
41
42
43
44
45
46
47
48
49
50
51
52
53
54
55
56
57
58
59
60
61
62
63
64
65
66
67
68
69
70
71
72
73
74
75
76
77
78
79
80
81
82
83
84
85
86
87
88
89
90
91
92
93
94
95
96
97
98
99
100
101
102
103
104
105
106
107
108
109
110
111
112
113
114
115
116
117
118
119
120
121
122
123
124
125
126
127
128
129
130
131
132
133
134
135
136
137
138
139
140
141
142
143
144
145
146
147
148
149
150
151
152
153
154
155
156
157
158
159
160
161
162
163
164
165
166
167
168
169
170
171
172
173
174
175
176
177
178
179
180
181
182
183
184
185
186
187
188
189
190
191
192
193
194
195
196
197
198
199
200
201
202
203
204
205
206
207
208
209
210
211
212
213
214
215
216
217
218
219
220
221
222
223
224
225
226
227
228
229
230
231
232
233
234
235
236

