%nproc=8
%mem=1000MB
# rb3lyp/6-311+g** NMR geom=connectivity

Title

0 1
C    -4.0500558   -0.5771862    0.8136712
H    -5.0263804   -1.0082727    1.0024760
C    -3.9381552    0.6617804    0.2400876
H    -4.8252424    1.2338890   -0.0111295
C    -2.6768410    1.2433246    0.0057578
C    -1.4974121    0.5051527    0.2848253
C    -1.6508332   -0.7338728    0.9404026
H    -0.7713646   -1.2730967    1.2633753
C    -2.8898548   -1.2624035    1.1994307
H    -2.9683706   -2.2124563    1.7152676
C    -2.5773185    2.5963696   -0.4192930
H    -3.4870728    3.1412239   -0.6474055
C    -1.3741895    3.2147896   -0.4364030
H    -1.2997315    4.2742019   -0.6578144
C    -0.1719488    2.4994090   -0.1734588
C    -0.2043917    1.1018437    0.0192689
C     1.0513491    3.2042560   -0.0676222
H     1.0427344    4.2819499   -0.1896997
C     2.1942091    2.5487446    0.2579577
H     3.1168527    3.0912848    0.4334727
C     2.2216473    1.1336562    0.2934990
C     1.0486931    0.3945528    0.0302412
C     3.4483363    0.4614633    0.5573939
H     4.3095794    1.0606054    0.8334846
C     3.5427346   -0.8855926    0.4749463
H     4.4731467   -1.3939704    0.7038822
C     2.4490052   -1.6474447   -0.0196319
C     1.2150704   -1.0057258   -0.3013573
C     0.2531113   -1.7434440   -1.0216591
H    -0.6541356   -1.2535051   -1.3462847
C     0.4494193   -3.0628597   -1.3413779
H    -0.3083162   -3.5944309   -1.9054060
C     1.6251726   -3.7207967   -0.9552541
H     1.7670048   -4.7687404   -1.1927019
C     2.6109872   -3.0144177   -0.3183050
H     3.5525612   -3.4902813   -0.0646367
Bq         0.9580229358    -3.3131652311    -0.8211695681
Bq         0.7587141168    -3.4462434866    -0.3823459446
Bq         0.9978846995    -3.2865495800    -0.9089342928
Bq         0.7188523530    -3.4728591377    -0.2945812198
Bq         1.0377464633    -3.2599339288    -0.9966990176
Bq         0.6789905892    -3.4994747888    -0.2068164951
Bq         1.0776082271    -3.2333182777    -1.0844637423
Bq         0.8782994082    -3.3663965333    -0.6456401187
Bq         0.8274311710    -3.2966192017    -0.5336421435
Bq         0.9071546986    -3.2433878995    -0.7091715930
Bq         0.7875694072    -3.3232348528    -0.4458774188
Bq         0.9470164624    -3.2167722484    -0.7969363177
Bq         0.7477076434    -3.3498505039    -0.3581126941
Bq         0.9868782262    -3.1901565972    -0.8847010424
Bq         0.7078458797    -3.3764661550    -0.2703479694
Bq         1.0267399900    -3.1635409461    -0.9724657671
Bq         0.6679841159    -3.4030818061    -0.1825832447
Bq         1.0666017537    -3.1369252950    -1.0602304918
Bq         0.8672929348    -3.2700035506    -0.6214068682
Bq         0.8164246976    -3.2002262190    -0.5094088931
Bq         0.8961482252    -3.1469949167    -0.6849383425
Bq         0.7765629339    -3.2268418701    -0.4216441684
Bq         0.9360099890    -3.1203792656    -0.7727030672
Bq         0.7367011701    -3.2534575212    -0.3338794436
Bq         0.9758717528    -3.0937636145    -0.8604677919
Bq         0.6968394063    -3.2800731723    -0.2461147189
Bq         1.0157335166    -3.0671479634    -0.9482325166
Bq         0.6569776425    -3.3066888234    -0.1583499942
Bq         1.0555952804    -3.0405323123    -1.0359972413
Bq         0.8562864614    -3.1736105679    -0.5971736178
Bq         0.8054182243    -3.1038332362    -0.4851756426
Bq         0.8851417518    -3.0506019340    -0.6607050920
Bq         0.7655564605    -3.1304488874    -0.3974109179
Bq         0.9250035156    -3.0239862829    -0.7484698168
Bq         0.7256946967    -3.1570645385    -0.3096461932
Bq         0.9648652794    -2.9973706318    -0.8362345415
Bq         0.6858329329    -3.1836801896    -0.2218814685
Bq         1.0047270432    -2.9707549807    -0.9239992662
Bq         0.6459711691    -3.2102958407    -0.1341167438
Bq         1.0445888070    -2.9441393296    -1.0117639909
Bq         0.8452799881    -3.0772175851    -0.5729403673
Bq         0.7944117509    -3.0074402535    -0.4609423922
Bq         0.8741352785    -2.9542089513    -0.6364718416
Bq         0.7545499871    -3.0340559046    -0.3731776674
Bq         0.9139970423    -2.9275933002    -0.7242365663
Bq         0.7146882233    -3.0606715558    -0.2854129427
Bq         0.9538588061    -2.9009776491    -0.8120012910
Bq         0.6748264595    -3.0872872069    -0.1976482180
Bq         0.9937205698    -2.8743619980    -0.8997660157
Bq         0.6349646958    -3.1139028580    -0.1098834933
Bq         1.0335823336    -2.8477463469    -0.9875307404
Bq         0.8342735147    -2.9808246024    -0.5487071169
Bq         0.7834052775    -2.9110472708    -0.4367091417
Bq         0.8631288051    -2.8578159686    -0.6122385911
Bq         0.7435435137    -2.9376629219    -0.3489444170
Bq         0.9029905689    -2.8312003175    -0.7000033158
Bq         0.7036817500    -2.9642785730    -0.2611796923
Bq         0.9428523327    -2.8045846664    -0.7877680405
Bq         0.6638199862    -2.9908942241    -0.1734149676
Bq         0.9827140965    -2.7779690153    -0.8755327653
Bq         0.6239582224    -3.0175098753    -0.0856502428
Bq         1.0225758603    -2.7513533642    -0.9632974900
Bq         0.8232670413    -2.8844316197    -0.5244738664
Bq         0.7723988042    -2.8146542881    -0.4124758912
Bq         0.8521223317    -2.7614229859    -0.5880053407
Bq         0.7325370404    -2.8412699392    -0.3247111665
Bq         0.8919840955    -2.7348073348    -0.6757700654
Bq         0.6926752766    -2.8678855903    -0.2369464418
Bq         0.9318458593    -2.7081916837    -0.7635347901
Bq         0.6528135128    -2.8945012414    -0.1491817171
Bq         0.9717076231    -2.6815760326    -0.8512995148
Bq         0.6129517490    -2.9211168925    -0.0614169924
Bq         1.0115693869    -2.6549603815    -0.9390642395
Bq         0.8122605679    -2.7880386370    -0.5002406160
Bq         0.7613923308    -2.7182613054    -0.3882426408
Bq         0.8411158584    -2.6650300032    -0.5637720902
Bq         0.7215305670    -2.7448769565    -0.3004779161
Bq         0.8809776221    -2.6384143521    -0.6515368149
Bq         0.6816688032    -2.7714926076    -0.2127131914
Bq         0.9208393859    -2.6117987010    -0.7393015396
Bq         0.6418070394    -2.7981082587    -0.1249484666
Bq         0.9607011497    -2.5851830499    -0.8270662643
Bq         0.6019452756    -2.8247239098    -0.0371837419
Bq         1.0005629135    -2.5585673988    -0.9148309891
Bq         0.8012540946    -2.6916456543    -0.4760073655
Bq         0.7503858574    -2.6218683227    -0.3640093903
Bq         0.8301093850    -2.5686370205    -0.5395388397
Bq         0.7105240936    -2.6484839738    -0.2762446656
Bq         0.8699711488    -2.5420213694    -0.6273035645
Bq         0.6706623298    -2.6750996249    -0.1884799409
Bq         0.9098329126    -2.5154057183    -0.7150682892
Bq         0.6308005661    -2.7017152760    -0.1007152162
Bq         0.9496946764    -2.4887900672    -0.8028330139
Bq         0.5909388023    -2.7283309271    -0.0129504915
Bq         0.9895564401    -2.4621744160    -0.8905977386
Bq         0.7902476212    -2.5952526716    -0.4517741150
Bq         0.7393793840    -2.5254753400    -0.3397761399
Bq         0.8191029116    -2.4722440378    -0.5153055893
Bq         0.6995176203    -2.5520909911    -0.2520114152
Bq         0.8589646754    -2.4456283867    -0.6030703140
Bq         0.6596558565    -2.5787066422    -0.1642466904
Bq         0.8988264392    -2.4190127355    -0.6908350387
Bq         0.6197940927    -2.6053222933    -0.0764819657
Bq         0.9386882030    -2.3923970844    -0.7785997634
Bq         0.5799323289    -2.6319379444     0.0112827590
Bq         0.9785499668    -2.3657814333    -0.8663644881
Bq         0.7792411478    -2.4988596889    -0.4275408646
Bq         0.7283729107    -2.4290823573    -0.3155428894
Bq         0.8080964382    -2.3758510550    -0.4910723388
Bq         0.6885111469    -2.4556980084    -0.2277781647
Bq         0.8479582020    -2.3492354039    -0.5788370635
Bq         0.6486493831    -2.4823136595    -0.1400134400
Bq         0.8878199658    -2.3226197528    -0.6666017883
Bq         0.6087876193    -2.5089293106    -0.0522487153
Bq         0.9276817296    -2.2960041017    -0.7543665130
Bq         0.5689258555    -2.5355449617     0.0355160094
Bq         0.9675434934    -2.2693884506    -0.8421312377
Bq         0.7682346745    -2.4024667062    -0.4033076141
Bq         0.7173664373    -2.3326893746    -0.2913096389
Bq         0.7970899649    -2.2794580723    -0.4668390884
Bq         0.6775046735    -2.3593050257    -0.2035449142
Bq         0.8369517287    -2.2528424212    -0.5546038131
Bq         0.6376429097    -2.3859206768    -0.1157801895
Bq         0.8768134924    -2.2262267701    -0.6423685378
Bq         0.5977811459    -2.4125363279    -0.0280154648
Bq         0.9166752562    -2.1996111190    -0.7301332625
Bq         0.5579193821    -2.4391519790     0.0597492599
Bq         0.9565370200    -2.1729954679    -0.8178979872
Bq         0.7572282011    -2.3060737234    -0.3790743637
Bq         0.7063599639    -2.2362963918    -0.2670763885
Bq         0.7860834915    -2.1830650896    -0.4426058379
Bq         0.6664982001    -2.2629120429    -0.1793116638
Bq         0.8259452553    -2.1564494385    -0.5303705626
Bq         0.6266364363    -2.2895276941    -0.0915469391
Bq         0.8658070191    -2.1298337874    -0.6181352873
Bq         0.5867746726    -2.3161433452    -0.0037822144
Bq         0.9056687829    -2.1032181363    -0.7059000121
Bq         0.5469129088    -2.3427589963     0.0839825104
Bq         0.9455305466    -2.0766024852    -0.7936647368
Bq         0.7462217277    -2.2096807407    -0.3548411132
Bq         0.6953534906    -2.1399034091    -0.2428431380
Bq         0.7750770181    -2.0866721069    -0.4183725875
Bq         0.6554917268    -2.1665190602    -0.1550784133
Bq         0.8149387819    -2.0600564558    -0.5061373122
Bq         0.6156299630    -2.1931347113    -0.0673136886
Bq         0.8548005457    -2.0334408047    -0.5939020369
Bq         0.5757681992    -2.2197503624     0.0204510361
Bq         0.8946623095    -2.0068251536    -0.6816667616
Bq         0.5359064354    -2.2463660136     0.1082157608
Bq         0.9345240733    -1.9802095025    -0.7694314863
Bq         0.7352152543    -2.1132877580    -0.3306078627
Bq         0.6843470172    -2.0435104264    -0.2186098876
Bq         0.7640705448    -1.9902791242    -0.3941393370
Bq         0.6444852534    -2.0701260775    -0.1308451629
Bq         0.8039323085    -1.9636634731    -0.4819040617
Bq         0.6046234896    -2.0967417286    -0.0430804382
Bq         0.8437940723    -1.9370478220    -0.5696687864
Bq         0.5647617258    -2.1233573797     0.0446842866
Bq         0.8836558361    -1.9104321709    -0.6574335111
Bq         0.5248999620    -2.1499730308     0.1324490113
Bq         0.9235175999    -1.8838165198    -0.7451982359
Bq         0.7242087810    -2.0168947753    -0.3063746123
Bq         0.6733405438    -1.9471174437    -0.1943766371
Bq         0.7530640714    -1.8938861415    -0.3699060865
Bq         0.6334787800    -1.9737330948    -0.1066119124
Bq         0.7929258352    -1.8672704904    -0.4576708113
Bq         0.5936170162    -2.0003487459    -0.0188471877
Bq         0.8327875990    -1.8406548393    -0.5454355360
Bq         0.5537552524    -2.0269643970     0.0689175370
Bq         0.8726493627    -1.8140391882    -0.6332002607
Bq         0.5138934887    -2.0535800481     0.1566822617
Bq         0.9125111265    -1.7874235371    -0.7209649854
Bq         0.7132023076    -1.9205017926    -0.2821413618
Bq         0.6623340704    -1.8507244610    -0.1701433867
Bq         0.7420575980    -1.7974931588    -0.3456728361
Bq         0.6224723066    -1.8773401121    -0.0823786619
Bq         0.7819193618    -1.7708775077    -0.4334375608
Bq         0.5826105429    -1.9039557632     0.0053860628
Bq         0.8217811256    -1.7442618566    -0.5212022855
Bq         0.5427487791    -1.9305714143     0.0931507875
Bq         0.8616428894    -1.7176462055    -0.6089670102
Bq         0.5028870153    -1.9571870654     0.1809155122
Bq         0.9015046532    -1.6910305543    -0.6967317349
Bq         0.7021958342    -1.8241088099    -0.2579081114
Bq         0.6513275971    -1.7543314783    -0.1459101362
Bq         0.7310511246    -1.7011001761    -0.3214395856
Bq         0.6114658333    -1.7809471294    -0.0581454115
Bq         0.7709128884    -1.6744845250    -0.4092043103
Bq         0.5716040695    -1.8075627805     0.0296193132
Bq         0.8107746522    -1.6478688739    -0.4969690351
Bq         0.5317423057    -1.8341784316     0.1173840379
Bq         0.8506364160    -1.6212532227    -0.5847337598
Bq         0.4918805419    -1.8607940827     0.2051487626
Bq         0.8904981798    -1.5946375716    -0.6724984845
Bq         0.6911893609    -1.7277158272    -0.2336748609
Bq         0.6403211237    -1.6579384956    -0.1216768857
Bq         0.7200446513    -1.6047071934    -0.2972063352
Bq         0.6004593599    -1.6845541467    -0.0339121610
Bq         0.7599064151    -1.5780915422    -0.3849710599
Bq         0.5605975961    -1.7111697978     0.0538525637

1
2
3
4
5
6
7
8
9
10
11
12
13
14
15
16
17
18
19
20
21
22
23
24
25
26
27
28
29
30
31
32
33
34
35
36
37
38
39
40
41
42
43
44
45
46
47
48
49
50
51
52
53
54
55
56
57
58
59
60
61
62
63
64
65
66
67
68
69
70
71
72
73
74
75
76
77
78
79
80
81
82
83
84
85
86
87
88
89
90
91
92
93
94
95
96
97
98
99
100
101
102
103
104
105
106
107
108
109
110
111
112
113
114
115
116
117
118
119
120
121
122
123
124
125
126
127
128
129
130
131
132
133
134
135
136
137
138
139
140
141
142
143
144
145
146
147
148
149
150
151
152
153
154
155
156
157
158
159
160
161
162
163
164
165
166
167
168
169
170
171
172
173
174
175
176
177
178
179
180
181
182
183
184
185
186
187
188
189
190
191
192
193
194
195
196
197
198
199
200
201
202
203
204
205
206
207
208
209
210
211
212
213
214
215
216
217
218
219
220
221
222
223
224
225
226
227
228
229
230
231
232
233
234
235
236

