%nproc=8
%mem=1000MB
# rb3lyp/6-311+g** NMR geom=connectivity

Title

0 1
C    -4.0500558   -0.5771862    0.8136712
H    -5.0263804   -1.0082727    1.0024760
C    -3.9381552    0.6617804    0.2400876
H    -4.8252424    1.2338890   -0.0111295
C    -2.6768410    1.2433246    0.0057578
C    -1.4974121    0.5051527    0.2848253
C    -1.6508332   -0.7338728    0.9404026
H    -0.7713646   -1.2730967    1.2633753
C    -2.8898548   -1.2624035    1.1994307
H    -2.9683706   -2.2124563    1.7152676
C    -2.5773185    2.5963696   -0.4192930
H    -3.4870728    3.1412239   -0.6474055
C    -1.3741895    3.2147896   -0.4364030
H    -1.2997315    4.2742019   -0.6578144
C    -0.1719488    2.4994090   -0.1734588
C    -0.2043917    1.1018437    0.0192689
C     1.0513491    3.2042560   -0.0676222
H     1.0427344    4.2819499   -0.1896997
C     2.1942091    2.5487446    0.2579577
H     3.1168527    3.0912848    0.4334727
C     2.2216473    1.1336562    0.2934990
C     1.0486931    0.3945528    0.0302412
C     3.4483363    0.4614633    0.5573939
H     4.3095794    1.0606054    0.8334846
C     3.5427346   -0.8855926    0.4749463
H     4.4731467   -1.3939704    0.7038822
C     2.4490052   -1.6474447   -0.0196319
C     1.2150704   -1.0057258   -0.3013573
C     0.2531113   -1.7434440   -1.0216591
H    -0.6541356   -1.2535051   -1.3462847
C     0.4494193   -3.0628597   -1.3413779
H    -0.3083162   -3.5944309   -1.9054060
C     1.6251726   -3.7207967   -0.9552541
H     1.7670048   -4.7687404   -1.1927019
C     2.6109872   -3.0144177   -0.3183050
H     3.5525612   -3.4902813   -0.0646367
Bq        -0.9625164194     3.2513606126     0.5071396972
Bq        -0.8756607011     3.2218797021    -0.0858079903
Bq        -0.9769923724     3.2562740977     0.6059643118
Bq        -0.8611847481     3.2169662170    -0.1846326048
Bq        -0.9914683255     3.2611875828     0.7047889264
Bq        -0.8467087950     3.2120527319    -0.2834572194
Bq        -0.9190885603     3.2366201574     0.2106658535
Bq        -0.9328523794     3.3414128578     0.3046288633
Bq        -0.9039004733     3.3315858877     0.1069796341
Bq        -0.9473283324     3.3463263429     0.4034534779
Bq        -0.8894245202     3.3266724026     0.0081550196
Bq        -0.9618042855     3.3512398280     0.5022780925
Bq        -0.8749485672     3.3217589175    -0.0906695950
Bq        -0.9762802385     3.3561533131     0.6011027071
Bq        -0.8604726141     3.3168454324    -0.1894942096
Bq        -0.9907561915     3.3610667981     0.6999273217
Bq        -0.8459966611     3.3119319473    -0.2883188242
Bq        -0.9183764263     3.3364993727     0.2058042487
Bq        -0.9321402454     3.4412920732     0.2997672585
Bq        -0.9031883393     3.4314651030     0.1021180294
Bq        -0.9466161985     3.4462055583     0.3985918731
Bq        -0.8887123863     3.4265516179     0.0032934148
Bq        -0.9610921515     3.4511190434     0.4974164877
Bq        -0.8742364332     3.4216381329    -0.0955311998
Bq        -0.9755681046     3.4560325284     0.5962411023
Bq        -0.8597604802     3.4167246478    -0.1943558144
Bq        -0.9900440576     3.4609460135     0.6950657169
Bq        -0.8452845272     3.4118111627    -0.2931804290
Bq        -0.9176642924     3.4363785881     0.2009426440
Bq        -0.9314281115     3.5411712886     0.2949056538
Bq        -0.9024762054     3.5313443184     0.0972564246
Bq        -0.9459040645     3.5460847737     0.3937302684
Bq        -0.8880002524     3.5264308333    -0.0015681900
Bq        -0.9603800176     3.5509982587     0.4925548829
Bq        -0.8735242993     3.5215173482    -0.1003928046
Bq        -0.9748559706     3.5559117438     0.5913794975
Bq        -0.8590483463     3.5166038632    -0.1992174191
Bq        -0.9893319237     3.5608252289     0.6902041121
Bq        -0.8445723932     3.5116903781    -0.2980420337
Bq        -0.9169521584     3.5362578035     0.1960810392
Bq        -0.9307159775     3.6410505039     0.2900440490
Bq        -0.9017640715     3.6312235338     0.0923948198
Bq        -0.9451919306     3.6459639890     0.3888686636
Bq        -0.8872881184     3.6263100487    -0.0064297947
Bq        -0.9596678836     3.6508774741     0.4876932782
Bq        -0.8728121654     3.6213965636    -0.1052544093
Bq        -0.9741438367     3.6557909592     0.5865178928
Bq        -0.8583362123     3.6164830785    -0.2040790239
Bq        -0.9886197897     3.6607044443     0.6853425074
Bq        -0.8438602593     3.6115695935    -0.3029036385
Bq        -0.9162400245     3.6361370189     0.1912194344
Bq        -0.9300038436     3.7409297193     0.2851824442
Bq        -0.9010519375     3.7311027492     0.0875332151
Bq        -0.9444797966     3.7458432044     0.3840070588
Bq        -0.8865759845     3.7261892641    -0.0112913995
Bq        -0.9589557497     3.7507566895     0.4828316734
Bq        -0.8721000314     3.7212757790    -0.1101160141
Bq        -0.9734317027     3.7556701746     0.5816562880
Bq        -0.8576240784     3.7163622939    -0.2089406287
Bq        -0.9879076558     3.7605836597     0.6804809026
Bq        -0.8431481253     3.7114488088    -0.3077652433
Bq        -0.9155278906     3.7360162342     0.1863578297
Bq        -0.9292917097     3.8408089347     0.2803208395
Bq        -0.9003398036     3.8309819645     0.0826716103
Bq        -0.9437676627     3.8457224198     0.3791454541
Bq        -0.8858638505     3.8260684795    -0.0161530043
Bq        -0.9582436157     3.8506359049     0.4779700686
Bq        -0.8713878975     3.8211549944    -0.1149776189
Bq        -0.9727195688     3.8555493900     0.5767946832
Bq        -0.8569119444     3.8162415093    -0.2138022334
Bq        -0.9871955218     3.8604628750     0.6756192978
Bq        -0.8424359914     3.8113280242    -0.3126268480
Bq        -0.9148157566     3.8358954496     0.1814962249
Bq        -0.9285795757     3.9406881501     0.2754592347
Bq        -0.8996276696     3.9308611799     0.0778100055
Bq        -0.9430555288     3.9456016352     0.3742838493
Bq        -0.8851517166     3.9259476948    -0.0210146090
Bq        -0.9575314818     3.9505151202     0.4731084639
Bq        -0.8706757635     3.9210342098    -0.1198392236
Bq        -0.9720074348     3.9554286053     0.5719330785
Bq        -0.8561998105     3.9161207247    -0.2186638382
Bq        -0.9864833879     3.9603420904     0.6707576931
Bq        -0.8417238575     3.9112072396    -0.3174884528
Bq        -0.9141036227     3.9357746650     0.1766346201
Bq        -0.9278674418     4.0405673655     0.2705976299
Bq        -0.8989155357     4.0307403953     0.0729484008
Bq        -0.9423433948     4.0454808505     0.3694222445
Bq        -0.8844395826     4.0258269102    -0.0258762138
Bq        -0.9568193479     4.0503943356     0.4682468591
Bq        -0.8699636296     4.0209134251    -0.1247008284
Bq        -0.9712953009     4.0553078207     0.5670714737
Bq        -0.8554876766     4.0159999400    -0.2235254430
Bq        -0.9857712540     4.0602213058     0.6658960883
Bq        -0.8410117235     4.0110864550    -0.3223500576
Bq        -0.9133914887     4.0356538804     0.1717730154
Bq        -0.9271553078     4.1404465808     0.2657360252
Bq        -0.8982034017     4.1306196107     0.0680867960
Bq        -0.9416312609     4.1453600659     0.3645606398
Bq        -0.8837274487     4.1257061256    -0.0307378186
Bq        -0.9561072139     4.1502735510     0.4633852543
Bq        -0.8692514957     4.1207926405    -0.1295624332
Bq        -0.9705831670     4.1551870361     0.5622098689
Bq        -0.8547755426     4.1158791554    -0.2283870477
Bq        -0.9850591200     4.1601005212     0.6610344835
Bq        -0.8402995896     4.1109656703    -0.3272116623
Bq        -0.9126793548     4.1355330958     0.1669114106
Bq        -0.9264431739     4.2403257962     0.2608744204
Bq        -0.8974912678     4.2304988260     0.0632251912
Bq        -0.9409191269     4.2452392813     0.3596990350
Bq        -0.8830153148     4.2255853410    -0.0355994233
Bq        -0.9553950800     4.2501527664     0.4585236496
Bq        -0.8685393617     4.2206718559    -0.1344240379
Bq        -0.9698710330     4.2550662515     0.5573482642
Bq        -0.8540634087     4.2157583708    -0.2332486525
Bq        -0.9843469861     4.2599797365     0.6561728788
Bq        -0.8395874556     4.2108448857    -0.3320732671
Bq        -0.9119672208     4.2354123111     0.1620498058
Bq        -0.9257310399     4.3402050116     0.2560128156
Bq        -0.8967791339     4.3303780414     0.0583635865
Bq        -0.9402069930     4.3451184967     0.3548374302
Bq        -0.8823031808     4.3254645563    -0.0404610281
Bq        -0.9546829460     4.3500319818     0.4536620448
Bq        -0.8678272278     4.3205510713    -0.1392856427
Bq        -0.9691588991     4.3549454668     0.5524866594
Bq        -0.8533512747     4.3156375862    -0.2381102573
Bq        -0.9836348521     4.3598589519     0.6513112740
Bq        -0.8388753217     4.3107241011    -0.3369348719
Bq        -0.9112550869     4.3352915265     0.1571882011
Bq        -0.8623936132    -0.6537557573     0.5135865129
Bq        -0.8334417071    -0.6635827274     0.3159372837
Bq        -0.8768695662    -0.6488422722     0.6124111275
Bq        -0.8189657540    -0.6684962125     0.2171126691
Bq        -0.8913455193    -0.6439287871     0.7112357421
Bq        -0.8044898010    -0.6734096976     0.1182880545
Bq        -0.9058214723    -0.6390153020     0.8100603566
Bq        -0.7900138479    -0.6783231827     0.0194634400
Bq        -0.9202974253    -0.6341018169     0.9088849712
Bq        -0.7755378949    -0.6832366678    -0.0793611746
Bq        -0.8479176601    -0.6586692423     0.4147618983
Bq        -0.8616814792    -0.5538765419     0.5087249081
Bq        -0.8327295731    -0.5637035121     0.3110756789
Bq        -0.8761574323    -0.5489630568     0.6075495227
Bq        -0.8182536201    -0.5686169971     0.2122510644
Bq        -0.8906333853    -0.5440495717     0.7063741373
Bq        -0.8037776670    -0.5735304822     0.1134264498
Bq        -0.9051093384    -0.5391360866     0.8051987519
Bq        -0.7893017140    -0.5784439673     0.0146018352
Bq        -0.9195852914    -0.5342226016     0.9040233665
Bq        -0.7748257610    -0.5833574524    -0.0842227794
Bq        -0.8472055262    -0.5587900270     0.4099002935
Bq        -0.8609693453    -0.4539973265     0.5038633034
Bq        -0.8320174392    -0.4638242967     0.3062140742
Bq        -0.8754452983    -0.4490838414     0.6026879179
Bq        -0.8175414861    -0.4687377818     0.2073894596
Bq        -0.8899212514    -0.4441703563     0.7015125325
Bq        -0.8030655331    -0.4736512668     0.1085648450
Bq        -0.9043972044    -0.4392568713     0.8003371471
Bq        -0.7885895801    -0.4785647519     0.0097402304
Bq        -0.9188731575    -0.4343433862     0.8991617617
Bq        -0.7741136270    -0.4834782370    -0.0890843842
Bq        -0.8464933922    -0.4589108116     0.4050386888
Bq        -0.8602572113    -0.3541181111     0.4990016986
Bq        -0.8313053052    -0.3639450813     0.3013524694
Bq        -0.8747331644    -0.3492046261     0.5978263132
Bq        -0.8168293522    -0.3688585664     0.2025278548
Bq        -0.8892091174    -0.3442911410     0.6966509278
Bq        -0.8023533992    -0.3737720515     0.1037032402
Bq        -0.9036850705    -0.3393776559     0.7954755423
Bq        -0.7878774461    -0.3786855365     0.0048786257
Bq        -0.9181610235    -0.3344641708     0.8943001569
Bq        -0.7734014931    -0.3835990216    -0.0939459889
Bq        -0.8457812583    -0.3590315962     0.4001770840
Bq        -0.8595450774    -0.2542388958     0.4941400938
Bq        -0.8305931713    -0.2640658659     0.2964908646
Bq        -0.8740210304    -0.2493254107     0.5929647084
Bq        -0.8161172183    -0.2689793510     0.1976662501
Bq        -0.8884969835    -0.2444119256     0.6917893230
Bq        -0.8016412652    -0.2738928361     0.0988416355
Bq        -0.9029729365    -0.2394984405     0.7906139376
Bq        -0.7871653122    -0.2788063212     0.0000170209
Bq        -0.9174488896    -0.2345849554     0.8894385522
Bq        -0.7726893591    -0.2837198063    -0.0988075937
Bq        -0.8450691244    -0.2591523808     0.3953154792
Bq        -0.8588329435    -0.1543596804     0.4892784891
Bq        -0.8298810374    -0.1641866505     0.2916292599
Bq        -0.8733088965    -0.1494461953     0.5881031036
Bq        -0.8154050843    -0.1691001356     0.1928046453
Bq        -0.8877848495    -0.1445327102     0.6869277182
Bq        -0.8009291313    -0.1740136207     0.0939800307
Bq        -0.9022608026    -0.1396192251     0.7857523328
Bq        -0.7864531782    -0.1789271058    -0.0048445839
Bq        -0.9167367556    -0.1347057400     0.8845769474
Bq        -0.7719772252    -0.1838405909    -0.1036691985
Bq        -0.8443569904    -0.1592731655     0.3904538745
Bq        -0.8581208095    -0.0544804650     0.4844168843
Bq        -0.8291689034    -0.0643074352     0.2867676551
Bq        -0.8725967626    -0.0495669799     0.5832414989
Bq        -0.8146929504    -0.0692209203     0.1879430405
Bq        -0.8870727156    -0.0446534948     0.6820661135
Bq        -0.8002169973    -0.0741344053     0.0891184259

1
2
3
4
5
6
7
8
9
10
11
12
13
14
15
16
17
18
19
20
21
22
23
24
25
26
27
28
29
30
31
32
33
34
35
36
37
38
39
40
41
42
43
44
45
46
47
48
49
50
51
52
53
54
55
56
57
58
59
60
61
62
63
64
65
66
67
68
69
70
71
72
73
74
75
76
77
78
79
80
81
82
83
84
85
86
87
88
89
90
91
92
93
94
95
96
97
98
99
100
101
102
103
104
105
106
107
108
109
110
111
112
113
114
115
116
117
118
119
120
121
122
123
124
125
126
127
128
129
130
131
132
133
134
135
136
137
138
139
140
141
142
143
144
145
146
147
148
149
150
151
152
153
154
155
156
157
158
159
160
161
162
163
164
165
166
167
168
169
170
171
172
173
174
175
176
177
178
179
180
181
182
183
184
185
186
187
188
189
190
191
192
193
194
195
196
197
198
199
200
201
202
203
204
205
206
207
208
209
210
211
212
213
214
215
216
217
218
219
220
221
222
223
224
225
226
227
228
229
230
231
232
233
234
235
236

