%nproc=8
%mem=1000MB
# rb3lyp/6-311+g** NMR geom=connectivity

Title

0 1
C    -4.0500558   -0.5771862    0.8136712
H    -5.0263804   -1.0082727    1.0024760
C    -3.9381552    0.6617804    0.2400876
H    -4.8252424    1.2338890   -0.0111295
C    -2.6768410    1.2433246    0.0057578
C    -1.4974121    0.5051527    0.2848253
C    -1.6508332   -0.7338728    0.9404026
H    -0.7713646   -1.2730967    1.2633753
C    -2.8898548   -1.2624035    1.1994307
H    -2.9683706   -2.2124563    1.7152676
C    -2.5773185    2.5963696   -0.4192930
H    -3.4870728    3.1412239   -0.6474055
C    -1.3741895    3.2147896   -0.4364030
H    -1.2997315    4.2742019   -0.6578144
C    -0.1719488    2.4994090   -0.1734588
C    -0.2043917    1.1018437    0.0192689
C     1.0513491    3.2042560   -0.0676222
H     1.0427344    4.2819499   -0.1896997
C     2.1942091    2.5487446    0.2579577
H     3.1168527    3.0912848    0.4334727
C     2.2216473    1.1336562    0.2934990
C     1.0486931    0.3945528    0.0302412
C     3.4483363    0.4614633    0.5573939
H     4.3095794    1.0606054    0.8334846
C     3.5427346   -0.8855926    0.4749463
H     4.4731467   -1.3939704    0.7038822
C     2.4490052   -1.6474447   -0.0196319
C     1.2150704   -1.0057258   -0.3013573
C     0.2531113   -1.7434440   -1.0216591
H    -0.6541356   -1.2535051   -1.3462847
C     0.4494193   -3.0628597   -1.3413779
H    -0.3083162   -3.5944309   -1.9054060
C     1.6251726   -3.7207967   -0.9552541
H     1.7670048   -4.7687404   -1.1927019
C     2.6109872   -3.0144177   -0.3183050
H     3.5525612   -3.4902813   -0.0646367
Bq         2.6742668414    -3.9447544296    -0.0053252565
Bq         2.6233986042    -3.8749770979     0.1066727187
Bq         2.7031221318    -3.8217457957    -0.0688567308
Bq         2.5835368404    -3.9015927491     0.1944374434
Bq         2.7429838956    -3.7951301446    -0.1566214555
Bq         2.5436750766    -3.9282084002     0.2822021681
Bq         2.7828456594    -3.7685144935    -0.2443861802
Bq         2.5038133128    -3.9548240513     0.3699668928
Bq         2.8227074231    -3.7418988424    -0.3321509049
Bq         2.4639515491    -3.9814397024     0.4577316175
Bq         2.8625691869    -3.7152831913    -0.4199156296
Bq         2.6632603680    -3.8483614468     0.0189079939
Bq         2.6123921308    -3.7785841152     0.1309059691
Bq         2.6921156584    -3.7253528130    -0.0446234803
Bq         2.5725303670    -3.8051997663     0.2186706938
Bq         2.7319774222    -3.6987371619    -0.1323882050
Bq         2.5326686033    -3.8318154174     0.3064354185
Bq         2.7718391860    -3.6721215108    -0.2201529297
Bq         2.4928068395    -3.8584310686     0.3942001433
Bq         2.8117009498    -3.6455058597    -0.3079176544
Bq         2.4529450757    -3.8850467197     0.4819648680
Bq         2.8515627136    -3.6188902086    -0.3956823792
Bq         2.6522538946    -3.7519684641     0.0431412444
Bq         2.6013856575    -3.6821911325     0.1551392196
Bq         2.6811091850    -3.6289598303    -0.0203902298
Bq         2.5615238937    -3.7088067836     0.2429039443
Bq         2.7209709488    -3.6023441792    -0.1081549546
Bq         2.5216621299    -3.7354224347     0.3306686690
Bq         2.7608327126    -3.5757285281    -0.1959196793
Bq         2.4818003661    -3.7620380858     0.4184333937
Bq         2.8006944764    -3.5491128770    -0.2836844040
Bq         2.4419386023    -3.7886537369     0.5061981184
Bq         2.8405562402    -3.5224972259    -0.3714491287
Bq         2.6412474213    -3.6555754814     0.0673744949
Bq         2.5903791841    -3.5857981498     0.1793724700
Bq         2.6701027117    -3.5325668476     0.0038430206
Bq         2.5505174203    -3.6124138009     0.2671371947
Bq         2.7099644755    -3.5059511965    -0.0839217041
Bq         2.5106556565    -3.6390294520     0.3549019195
Bq         2.7498262392    -3.4793355454    -0.1716864288
Bq         2.4707938927    -3.6656451031     0.4426666442
Bq         2.7896880030    -3.4527198943    -0.2594511535
Bq         2.4309321289    -3.6922607542     0.5304313689
Bq         2.8295497668    -3.4261042432    -0.3472158782
Bq         2.6302409479    -3.5591824987     0.0916077453
Bq         2.5793727107    -3.4894051671     0.2036057205
Bq         2.6590962383    -3.4361738649     0.0280762711
Bq         2.5395109469    -3.5160208182     0.2913704452
Bq         2.6989580021    -3.4095582138    -0.0596884536
Bq         2.4996491831    -3.5426364693     0.3791351699
Bq         2.7388197659    -3.3829425627    -0.1474531784
Bq         2.4597874194    -3.5692521204     0.4668998946
Bq         2.7786815297    -3.3563269116    -0.2352179031
Bq         2.4199256556    -3.5958677715     0.5546646193
Bq         2.8185432934    -3.3297112605    -0.3229826278
Bq         2.6192344745    -3.4627895160     0.1158409958
Bq         2.5683662373    -3.3930121844     0.2278389710
Bq         2.6480897649    -3.3397808822     0.0523095215
Bq         2.5285044736    -3.4196278355     0.3156036957
Bq         2.6879515287    -3.3131652311    -0.0354552032
Bq         2.4886427098    -3.4462434866     0.4033684204
Bq         2.7278132925    -3.2865495800    -0.1232199279
Bq         2.4487809460    -3.4728591377     0.4911331451
Bq         2.7676750563    -3.2599339288    -0.2109846526
Bq         2.4089191822    -3.4994747888     0.5788978698
Bq         2.8075368201    -3.2333182777    -0.2987493773
Bq         2.6082280011    -3.3663965333     0.1400742462
Bq         2.5573597640    -3.2966192017     0.2520722214
Bq         2.6370832915    -3.2433878995     0.0765427720
Bq         2.5174980002    -3.3232348528     0.3398369461
Bq         2.6769450553    -3.2167722484    -0.0112219527
Bq         2.4776362364    -3.3498505039     0.4276016708
Bq         2.7168068191    -3.1901565972    -0.0989866774
Bq         2.4377744726    -3.3764661550     0.5153663955
Bq         2.7566685829    -3.1635409461    -0.1867514022
Bq         2.3979127088    -3.4030818061     0.6031311203
Bq         2.7965303467    -3.1369252950    -0.2745161269
Bq         2.5972215278    -3.2700035506     0.1643074967
Bq         2.5463532906    -3.2002262190     0.2763054719
Bq         2.6260768182    -3.1469949167     0.1007760224
Bq         2.5064915268    -3.2268418701     0.3640701966
Bq         2.6659385820    -3.1203792656     0.0130112977
Bq         2.4666297630    -3.2534575212     0.4518349213
Bq         2.7058003458    -3.0937636145    -0.0747534270
Bq         2.4267679992    -3.2800731723     0.5395996460
Bq         2.7456621095    -3.0671479634    -0.1625181517
Bq         2.3869062355    -3.3066888234     0.6273643707
Bq         2.7855238733    -3.0405323123    -0.2502828764
Bq         2.5862150544    -3.1736105679     0.1885407472
Bq         2.5353468172    -3.1038332362     0.3005387223
Bq         2.6150703448    -3.0506019340     0.1250092729
Bq         2.4954850534    -3.1304488874     0.3883034470
Bq         2.6549321086    -3.0239862829     0.0372445482
Bq         2.4556232897    -3.1570645385     0.4760681718
Bq         2.6947938724    -2.9973706318    -0.0505201765
Bq         2.4157615259    -3.1836801896     0.5638328965
Bq         2.7346556362    -2.9707549807    -0.1382849012
Bq         2.3758997621    -3.2102958407     0.6515976212
Bq         2.7745174000    -2.9441393296    -0.2260496260
Bq         2.5752085810    -3.0772175851     0.2127739976
Bq         2.5243403439    -3.0074402535     0.3247719728
Bq         2.6040638714    -2.9542089513     0.1492425234
Bq         2.4844785801    -3.0340559046     0.4125366975
Bq         2.6439256352    -2.9275933002     0.0614777986
Bq         2.4446168163    -3.0606715558     0.5003014222
Bq         2.6837873990    -2.9009776491    -0.0262869261
Bq         2.4047550525    -3.0872872069     0.5880661469
Bq         2.7236491628    -2.8743619980    -0.1140516508
Bq         2.3648932887    -3.1139028580     0.6758308716
Bq         2.7635109266    -2.8477463469    -0.2018163755
Bq         2.5642021076    -2.9808246024     0.2370072481
Bq         2.5133338705    -2.9110472708     0.3490052232
Bq         2.5930573981    -2.8578159686     0.1734757738
Bq         2.4734721067    -2.9376629219     0.4367699480
Bq         2.6329191618    -2.8312003175     0.0857110491
Bq         2.4336103429    -2.9642785730     0.5245346727
Bq         2.6727809256    -2.8045846664    -0.0020536756
Bq         2.3937485791    -2.9908942241     0.6122993974
Bq         2.7126426894    -2.7779690153    -0.0898184003
Bq         2.3538868153    -3.0175098753     0.7000641221
Bq         2.7525044532    -2.7513533642    -0.1775831250
Bq         2.5531956343    -2.8844316197     0.2612404985
Bq         2.5023273971    -2.8146542881     0.3732384737
Bq         2.5820509247    -2.7614229859     0.1977090243
Bq         2.4624656333    -2.8412699392     0.4610031984
Bq         2.6219126885    -2.7348073348     0.1099442996
Bq         2.4226038695    -2.8678855903     0.5487679231
Bq         2.6617744523    -2.7081916837     0.0221795748
Bq         2.3827421058    -2.8945012414     0.6365326478
Bq         2.7016362161    -2.6815760326    -0.0655851499
Bq         2.3428803420    -2.9211168925     0.7242973726
Bq         2.7414979798    -2.6549603815    -0.1533498746
Bq         2.5421891609    -2.7880386370     0.2854737490
Bq         2.4913209237    -2.7182613054     0.3974717242
Bq         2.5710444513    -2.6650300032     0.2219422747
Bq         2.4514591600    -2.7448769565     0.4852364489
Bq         2.6109062151    -2.6384143521     0.1341775500
Bq         2.4115973962    -2.7714926076     0.5730011736
Bq         2.6507679789    -2.6117987010     0.0464128253
Bq         2.3717356324    -2.7981082587     0.6607658983
Bq         2.6906297427    -2.5851830499    -0.0413518994
Bq         2.3318738686    -2.8247239098     0.7485306230
Bq         2.7304915065    -2.5585673988    -0.1291166241
Bq         2.5311826875    -2.6916456543     0.3097069994
Bq         2.4803144504    -2.6218683227     0.4217049746
Bq         2.5600379779    -2.5686370205     0.2461755252
Bq         2.4404526866    -2.6484839738     0.5094696993
Bq         2.5998997417    -2.5420213694     0.1584108005
Bq         2.4005909228    -2.6750996249     0.5972344240
Bq         2.6397615055    -2.5154057183     0.0706460758
Bq         2.3607291590    -2.7017152760     0.6849991488
Bq         2.6796232693    -2.4887900672    -0.0171186489
Bq         2.3208673952    -2.7283309271     0.7727638735
Bq         2.7194850331    -2.4621744160    -0.1048833737
Bq         2.5201762142    -2.5952526716     0.3339402499
Bq         2.4693079770    -2.5254753400     0.4459382251
Bq         2.5490315046    -2.4722440378     0.2704087756
Bq         2.4294462132    -2.5520909911     0.5337029498
Bq         2.5888932684    -2.4456283867     0.1826440509
Bq         2.3895844494    -2.5787066422     0.6214676745
Bq         2.6287550321    -2.4190127355     0.0948793262
Bq         2.3497226856    -2.6053222933     0.7092323992
Bq         2.6686167959    -2.3923970844     0.0071146015
Bq         2.3098609218    -2.6319379444     0.7969971239
Bq         2.7084785597    -2.3657814333    -0.0806501232
Bq         2.5091697408    -2.4988596889     0.3581735004
Bq         2.4583015036    -2.4290823573     0.4701714755
Bq         2.5380250312    -2.3758510550     0.2946420261
Bq         2.4184397398    -2.4556980084     0.5579362002
Bq         2.5778867950    -2.3492354039     0.2068773014
Bq         2.3785779761    -2.4823136595     0.6457009250
Bq         2.6177485588    -2.3226197528     0.1191125767
Bq         2.3387162123    -2.5089293106     0.7334656497
Bq         2.6576103226    -2.2960041017     0.0313478520
Bq         2.2988544485    -2.5355449617     0.8212303744
Bq         2.6974720864    -2.2693884506    -0.0564168727
Bq         2.4981632674    -2.4024667062     0.3824067508
Bq         2.4472950303    -2.3326893746     0.4944047260
Bq         2.5270185578    -2.2794580723     0.3188752766
Bq         2.4074332665    -2.3593050257     0.5821694507
Bq         2.5668803216    -2.2528424212     0.2311105519
Bq         2.3675715027    -2.3859206768     0.6699341754
Bq         2.6067420854    -2.2262267701     0.1433458271
Bq         2.3277097389    -2.4125363279     0.7576989001
Bq         2.6466038492    -2.1996111190     0.0555811024
Bq         2.2878479751    -2.4391519790     0.8454636248
Bq         2.6864656130    -2.1729954679    -0.0321836223
Bq         2.4871567940    -2.3060737234     0.4066400013
Bq         2.4362885569    -2.2362963918     0.5186379764
Bq         2.5160120845    -2.1830650896     0.3431085270
Bq         2.3964267931    -2.2629120429     0.6064027012
Bq         2.5558738482    -2.1564494385     0.2553438023
Bq         2.3565650293    -2.2895276941     0.6941674259
Bq         2.5957356120    -2.1298337874     0.1675790776
Bq         2.3167032655    -2.3161433452     0.7819321506
Bq         2.6355973758    -2.1032181363     0.0798143529
Bq         2.2768415017    -2.3427589963     0.8696968753
Bq         2.6754591396    -2.0766024852    -0.0079503718
Bq         2.4761503207    -2.2096807407     0.4308732517
Bq         2.4252820835    -2.1399034091     0.5428712269

1
2
3
4
5
6
7
8
9
10
11
12
13
14
15
16
17
18
19
20
21
22
23
24
25
26
27
28
29
30
31
32
33
34
35
36
37
38
39
40
41
42
43
44
45
46
47
48
49
50
51
52
53
54
55
56
57
58
59
60
61
62
63
64
65
66
67
68
69
70
71
72
73
74
75
76
77
78
79
80
81
82
83
84
85
86
87
88
89
90
91
92
93
94
95
96
97
98
99
100
101
102
103
104
105
106
107
108
109
110
111
112
113
114
115
116
117
118
119
120
121
122
123
124
125
126
127
128
129
130
131
132
133
134
135
136
137
138
139
140
141
142
143
144
145
146
147
148
149
150
151
152
153
154
155
156
157
158
159
160
161
162
163
164
165
166
167
168
169
170
171
172
173
174
175
176
177
178
179
180
181
182
183
184
185
186
187
188
189
190
191
192
193
194
195
196
197
198
199
200
201
202
203
204
205
206
207
208
209
210
211
212
213
214
215
216
217
218
219
220
221
222
223
224
225
226
227
228
229
230
231
232
233
234
235
236

