%nproc=8
%mem=1000MB
# rb3lyp/6-311+g** NMR geom=connectivity

Title

0 1
C    -4.0500558   -0.5771862    0.8136712
H    -5.0263804   -1.0082727    1.0024760
C    -3.9381552    0.6617804    0.2400876
H    -4.8252424    1.2338890   -0.0111295
C    -2.6768410    1.2433246    0.0057578
C    -1.4974121    0.5051527    0.2848253
C    -1.6508332   -0.7338728    0.9404026
H    -0.7713646   -1.2730967    1.2633753
C    -2.8898548   -1.2624035    1.1994307
H    -2.9683706   -2.2124563    1.7152676
C    -2.5773185    2.5963696   -0.4192930
H    -3.4870728    3.1412239   -0.6474055
C    -1.3741895    3.2147896   -0.4364030
H    -1.2997315    4.2742019   -0.6578144
C    -0.1719488    2.4994090   -0.1734588
C    -0.2043917    1.1018437    0.0192689
C     1.0513491    3.2042560   -0.0676222
H     1.0427344    4.2819499   -0.1896997
C     2.1942091    2.5487446    0.2579577
H     3.1168527    3.0912848    0.4334727
C     2.2216473    1.1336562    0.2934990
C     1.0486931    0.3945528    0.0302412
C     3.4483363    0.4614633    0.5573939
H     4.3095794    1.0606054    0.8334846
C     3.5427346   -0.8855926    0.4749463
H     4.4731467   -1.3939704    0.7038822
C     2.4490052   -1.6474447   -0.0196319
C     1.2150704   -1.0057258   -0.3013573
C     0.2531113   -1.7434440   -1.0216591
H    -0.6541356   -1.2535051   -1.3462847
C     0.4494193   -3.0628597   -1.3413779
H    -0.3083162   -3.5944309   -1.9054060
C     1.6251726   -3.7207967   -0.9552541
H     1.7670048   -4.7687404   -1.1927019
C     2.6109872   -3.0144177   -0.3183050
H     3.5525612   -3.4902813   -0.0646367
Bq         3.2837864454     1.7187779864     0.4970167410
Bq         3.1535028680     1.7629993521     1.3864382723
Bq         3.2982623984     1.7138645013     0.3981921265
Bq         3.2258826332     1.7384319267     0.8923151994
Bq         3.2121188141     1.8432246272     0.9862782092
Bq         3.2410707202     1.8333976570     0.7886289800
Bq         3.1976428611     1.8481381122     1.0851028238
Bq         3.2555466732     1.8284841719     0.6898043654
Bq         3.1831669080     1.8530515973     1.1839274384
Bq         3.2700226263     1.8235706868     0.5909797509
Bq         3.1686909550     1.8579650824     1.2827520529
Bq         3.2844985793     1.8186572017     0.4921551363
Bq         3.1542150019     1.8628785675     1.3815766675
Bq         3.2989745324     1.8137437167     0.3933305217
Bq         3.2265947672     1.8383111421     0.8874535946
Bq         3.2128309481     1.9431038425     0.9814166044
Bq         3.2417828541     1.9332768724     0.7837673753
Bq         3.1983549950     1.9480173276     1.0802412190
Bq         3.2562588072     1.9283633873     0.6849427607
Bq         3.1838790420     1.9529308127     1.1790658336
Bq         3.2707347602     1.9234499022     0.5861181461
Bq         3.1694030889     1.9578442978     1.2778904482
Bq         3.2852107133     1.9185364171     0.4872935315
Bq         3.1549271359     1.9627577829     1.3767150628
Bq         3.2996866663     1.9136229320     0.3884689169
Bq         3.2273069011     1.9381903575     0.8825919898
Bq         3.2135430820     2.0429830579     0.9765549997
Bq         3.2424949881     2.0331560878     0.7789057705
Bq         3.1990671290     2.0478965430     1.0753796142
Bq         3.2569709411     2.0282426027     0.6800811559
Bq         3.1845911759     2.0528100281     1.1742042288
Bq         3.2714468942     2.0233291176     0.5812565413
Bq         3.1701152229     2.0577235132     1.2730288434
Bq         3.2859228472     2.0184156325     0.4824319267
Bq         3.1556392698     2.0626369982     1.3718534580
Bq         3.3003988003     2.0135021474     0.3836073122
Bq         3.2280190350     2.0380695728     0.8777303851
Bq         3.2142552159     2.1428622733     0.9716933949
Bq         3.2432071220     2.1330353031     0.7740441657
Bq         3.1997792629     2.1477757584     1.0705180095
Bq         3.2576830751     2.1281218180     0.6752195511
Bq         3.1853033098     2.1526892435     1.1693426241
Bq         3.2721590281     2.1232083330     0.5763949366
Bq         3.1708273568     2.1576027285     1.2681672387
Bq         3.2866349812     2.1182948479     0.4775703220
Bq         3.1563514038     2.1625162136     1.3669918532
Bq         3.3011109342     2.1133813628     0.3787457074
Bq         3.2287311690     2.1379487882     0.8728687803
Bq         3.2149673499     2.2427414887     0.9668317901
Bq         3.2439192560     2.2329145185     0.7691825610
Bq         3.2004913968     2.2476549738     1.0656564047
Bq         3.2583952090     2.2280010334     0.6703579464
Bq         3.1860154438     2.2525684588     1.1644810193
Bq         3.2728711621     2.2230875483     0.5715333318
Bq         3.1715394907     2.2574819439     1.2633056339
Bq         3.2873471151     2.2181740633     0.4727087172
Bq         3.1570635377     2.2623954290     1.3621302485
Bq         3.3018230681     2.2132605782     0.3738841026
Bq         3.2294433029     2.2378280036     0.8680071755
Bq         3.2156794838     2.3426207040     0.9619701854
Bq         3.2446313899     2.3327937339     0.7643209562
Bq         3.2012035308     2.3475341891     1.0607947999
Bq         3.2591073430     2.3278802488     0.6654963416
Bq         3.1867275777     2.3524476742     1.1596194145
Bq         3.2735832960     2.3229667637     0.5666717270
Bq         3.1722516247     2.3573611593     1.2584440291
Bq         3.2880592490     2.3180532786     0.4678471124
Bq         3.1577756716     2.3622746444     1.3572686437
Bq         3.3025352021     2.3131397936     0.3690224979
Bq         3.2301554369     2.3377072190     0.8631455708
Bq         3.2163916178     2.4424999194     0.9571085806
Bq         3.2453435239     2.4326729493     0.7594593514
Bq         3.2019156647     2.4474134045     1.0559331952
Bq         3.2598194769     2.4277594642     0.6606347368
Bq         3.1874397117     2.4523268896     1.1547578098
Bq         3.2742954299     2.4228459791     0.5618101223
Bq         3.1729637586     2.4572403747     1.2535824244
Bq         3.2887713830     2.4179324940     0.4629855077
Bq         3.1584878056     2.4621538598     1.3524070389
Bq         3.3032473360     2.4130190089     0.3641608931
Bq         3.2308675708     2.4375864343     0.8582839660
Bq         3.2171037517     2.5423791348     0.9522469758
Bq         3.2460556578     2.5325521646     0.7545977467
Bq         3.2026277987     2.5472926199     1.0510715904
Bq         3.2605316108     2.5276386796     0.6557731321
Bq         3.1881518456     2.5522061050     1.1498962050
Bq         3.2750075639     2.5227251945     0.5569485175
Bq         3.1736758926     2.5571195900     1.2487208196
Bq         3.2894835169     2.5178117094     0.4581239029
Bq         3.1591999395     2.5620330751     1.3475454342
Bq         3.3039594700     2.5128982243     0.3592992883
Bq         3.2315797047     2.5374656497     0.8534223612
Bq         3.2178158856     2.6422583502     0.9473853711
Bq         3.2467677917     2.6324313800     0.7497361419
Bq         3.2033399326     2.6471718353     1.0462099856
Bq         3.2612437448     2.6275178949     0.6509115273
Bq         3.1888639796     2.6520853203     1.1450346002
Bq         3.2757196978     2.6226044098     0.5520869127
Bq         3.1743880265     2.6569988054     1.2438592148
Bq         3.2901956509     2.6176909248     0.4532622981
Bq         3.1599120735     2.6619122905     1.3426838294
Bq         3.3046716039     2.6127774397     0.3544376836
Bq         3.2322918387     2.6373448651     0.8485607565
Bq         3.2185280196     2.7421375656     0.9425237663
Bq         3.2474799257     2.7323105954     0.7448745371
Bq         3.2040520665     2.7470510506     1.0413483809
Bq         3.2619558787     2.7273971103     0.6460499225
Bq         3.1895761135     2.7519645357     1.1401729955
Bq         3.2764318318     2.7224836252     0.5472253080
Bq         3.1751001605     2.7568780208     1.2389976101
Bq         3.2909077848     2.7175701401     0.4484006934
Bq         3.1606242074     2.7617915059     1.3378222246
Bq         3.3053837379     2.7126566551     0.3495760788
Bq         3.2330039726     2.7372240805     0.8436991517
Bq         3.2192401535     2.8420167809     0.9376621615
Bq         3.2481920596     2.8321898108     0.7400129324
Bq         3.2047642005     2.8469302660     1.0364867761
Bq         3.2626680127     2.8272763257     0.6411883178
Bq         3.1902882474     2.8518437511     1.1353113907
Bq         3.2771439657     2.8223628406     0.5423637032
Bq         3.1758122944     2.8567572362     1.2341360053
Bq         3.2916199188     2.8174493555     0.4435390886
Bq         3.1613363414     2.8616707213     1.3329606199
Bq         3.3060958718     2.8125358704     0.3447144740
Bq         3.2337161066     2.8371032959     0.8388375469
Bq         3.2199522875     2.9418959963     0.9328005568
Bq         3.2489041936     2.9320690261     0.7351513276
Bq         3.2054763344     2.9468094814     1.0316251713
Bq         3.2633801466     2.9271555411     0.6363267130
Bq         3.1910003814     2.9517229665     1.1304497859
Bq         3.2778560996     2.9222420560     0.5375020984
Bq         3.1765244283     2.9566364516     1.2292744005
Bq         3.2923320527     2.9173285709     0.4386774838
Bq         3.1620484753     2.9615499366     1.3280990151
Bq         3.3068080057     2.9124150858     0.3398528693
Bq         3.2344282405     2.9369825112     0.8339759422
Bq         3.2206644214     3.0417752117     0.9279389520
Bq         3.2496163275     3.0319482415     0.7302897228
Bq         3.2061884684     3.0466886968     1.0267635666
Bq         3.2640922805     3.0270347564     0.6314651082
Bq         3.1917125153     3.0516021819     1.1255881812
Bq         3.2785682336     3.0221212714     0.5326404937
Bq         3.1772365623     3.0565156669     1.2244127958
Bq         3.2930441866     3.0172077863     0.4338158791
Bq         3.1627606092     3.0614291520     1.3232374103
Bq         3.3075201397     3.0122943012     0.3349912645
Bq         3.2351403745     3.0368617266     0.8291143374
Bq         3.2213765554     3.1416544271     0.9230773472
Bq         3.2503284614     3.1318274569     0.7254281181
Bq         3.2069006023     3.1465679121     1.0219019618
Bq         3.2648044145     3.1269139718     0.6266035035
Bq         3.1924246493     3.1514813972     1.1207265764
Bq         3.2792803675     3.1220004867     0.5277788889
Bq         3.1779486962     3.1563948823     1.2195511910
Bq         3.2937563206     3.1170870017     0.4289542743
Bq         3.1634727432     3.1613083674     1.3183758056
Bq         3.3082322736     3.1121735166     0.3301296597
Bq         3.2358525084     3.1367409420     0.8242527326
Bq         3.2220886893     3.2415336424     0.9182157425
Bq         3.2510405954     3.2317066723     0.7205665133
Bq         3.2076127363     3.2464471275     1.0170403570
Bq         3.2655165484     3.2267931872     0.6217418987
Bq         3.1931367832     3.2513606126     1.1158649716
Bq         3.2799925015     3.2218797021     0.5229172841
Bq         3.1786608302     3.2562740977     1.2146895862
Bq         3.2944684545     3.2169662170     0.4240926695
Bq         3.1641848771     3.2611875828     1.3135142008
Bq         3.3089444076     3.2120527319     0.3252680550
Bq         3.2365646423     3.2366201574     0.8193911279
Bq         3.2228008232     3.3414128578     0.9133541377
Bq         3.2517527293     3.3315858877     0.7157049085
Bq         3.2083248702     3.3463263429     1.0121787523
Bq         3.2662286824     3.3266724026     0.6168802939
Bq         3.1938489172     3.3512398280     1.1110033669
Bq         3.2807046354     3.3217589175     0.5180556794
Bq         3.1793729641     3.3561533131     1.2098279815
Bq         3.2951805885     3.3168454324     0.4192310648
Bq         3.1648970111     3.3610667981     1.3086525960
Bq         3.3096565415     3.3119319473     0.3204064502
Bq         3.2372767763     3.3364993727     0.8145295231
Bq         3.2235129572     3.4412920732     0.9084925329
Bq         3.2524648633     3.4314651030     0.7108433038
Bq         3.2090370041     3.4462055583     1.0073171475
Bq         3.2669408163     3.4265516179     0.6120186892
Bq         3.1945610511     3.4511190434     1.1061417621
Bq         3.2814167694     3.4216381329     0.5131940746
Bq         3.1800850980     3.4560325284     1.2049663767
Bq         3.2958927224     3.4167246478     0.4143694600
Bq         3.1656091450     3.4609460135     1.3037909913
Bq         3.3103686754     3.4118111627     0.3155448454
Bq         3.2379889102     3.4363785881     0.8096679183
Bq         3.2242250911     3.5411712886     0.9036309282
Bq         3.2531769972     3.5313443184     0.7059816990
Bq         3.2097491381     3.5460847737     1.0024555428
Bq         3.2676529503     3.5264308333     0.6071570844
Bq         3.1952731850     3.5509982587     1.1012801573
Bq         3.2821289033     3.5215173482     0.5083324698
Bq         3.1807972320     3.5559117438     1.2001047719
Bq         3.2966048563     3.5166038632     0.4095078552
Bq         3.1663212789     3.5608252289     1.2989293865

1
2
3
4
5
6
7
8
9
10
11
12
13
14
15
16
17
18
19
20
21
22
23
24
25
26
27
28
29
30
31
32
33
34
35
36
37
38
39
40
41
42
43
44
45
46
47
48
49
50
51
52
53
54
55
56
57
58
59
60
61
62
63
64
65
66
67
68
69
70
71
72
73
74
75
76
77
78
79
80
81
82
83
84
85
86
87
88
89
90
91
92
93
94
95
96
97
98
99
100
101
102
103
104
105
106
107
108
109
110
111
112
113
114
115
116
117
118
119
120
121
122
123
124
125
126
127
128
129
130
131
132
133
134
135
136
137
138
139
140
141
142
143
144
145
146
147
148
149
150
151
152
153
154
155
156
157
158
159
160
161
162
163
164
165
166
167
168
169
170
171
172
173
174
175
176
177
178
179
180
181
182
183
184
185
186
187
188
189
190
191
192
193
194
195
196
197
198
199
200
201
202
203
204
205
206
207
208
209
210
211
212
213
214
215
216
217
218
219
220
221
222
223
224
225
226
227
228
229
230
231
232
233
234
235
236

