%nproc=8
%mem=1000MB
# rb3lyp/6-311+g** NMR geom=connectivity

Title

0 1
C    -4.0500558   -0.5771862    0.8136712
H    -5.0263804   -1.0082727    1.0024760
C    -3.9381552    0.6617804    0.2400876
H    -4.8252424    1.2338890   -0.0111295
C    -2.6768410    1.2433246    0.0057578
C    -1.4974121    0.5051527    0.2848253
C    -1.6508332   -0.7338728    0.9404026
H    -0.7713646   -1.2730967    1.2633753
C    -2.8898548   -1.2624035    1.1994307
H    -2.9683706   -2.2124563    1.7152676
C    -2.5773185    2.5963696   -0.4192930
H    -3.4870728    3.1412239   -0.6474055
C    -1.3741895    3.2147896   -0.4364030
H    -1.2997315    4.2742019   -0.6578144
C    -0.1719488    2.4994090   -0.1734588
C    -0.2043917    1.1018437    0.0192689
C     1.0513491    3.2042560   -0.0676222
H     1.0427344    4.2819499   -0.1896997
C     2.1942091    2.5487446    0.2579577
H     3.1168527    3.0912848    0.4334727
C     2.2216473    1.1336562    0.2934990
C     1.0486931    0.3945528    0.0302412
C     3.4483363    0.4614633    0.5573939
H     4.3095794    1.0606054    0.8334846
C     3.5427346   -0.8855926    0.4749463
H     4.4731467   -1.3939704    0.7038822
C     2.4490052   -1.6474447   -0.0196319
C     1.2150704   -1.0057258   -0.3013573
C     0.2531113   -1.7434440   -1.0216591
H    -0.6541356   -1.2535051   -1.3462847
C     0.4494193   -3.0628597   -1.3413779
H    -0.3083162   -3.5944309   -1.9054060
C     1.6251726   -3.7207967   -0.9552541
H     1.7670048   -4.7687404   -1.1927019
C     2.6109872   -3.0144177   -0.3183050
H     3.5525612   -3.4902813   -0.0646367
Bq        -1.4870546880     0.3641436530     1.3962624899
Bq        -1.4842227234     0.0162819170     0.6758569148
Bq        -1.4874086836     0.4076263700     1.4863131867
Bq        -1.4838687279    -0.0272008000     0.5858062179
Bq        -1.4856387057     0.1902127850     1.0360597023
Bq        -1.4858217690     0.3237468947     1.0826280182
Bq        -1.4851137779     0.2367814607     0.9025266244
Bq        -1.4861757646     0.3672296117     1.1726787151
Bq        -1.4847597823     0.1932987437     0.8124759275
Bq        -1.4865297602     0.4107123287     1.2627294119
Bq        -1.4844057867     0.1498160267     0.7224252306
Bq        -1.4868837558     0.4541950457     1.3527801088
Bq        -1.4840517912     0.1063333097     0.6323745338
Bq        -1.4872377513     0.4976777627     1.4428308057
Bq        -1.4836977956     0.0628505927     0.5423238369
Bq        -1.4854677735     0.2802641777     0.9925773213
Bq        -1.4856508368     0.4137982874     1.0391456371
Bq        -1.4849428456     0.3268328534     0.8590442434
Bq        -1.4860048323     0.4572810044     1.1291963340
Bq        -1.4845888500     0.2833501364     0.7689935465
Bq        -1.4863588279     0.5007637214     1.2192470309
Bq        -1.4842348545     0.2398674194     0.6789428496
Bq        -1.4867128235     0.5442464384     1.3092977278
Bq        -1.4838808589     0.1963847023     0.5888921527
Bq        -1.4870668191     0.5877291554     1.3993484247
Bq        -1.4835268633     0.1529019853     0.4988414559
Bq        -1.4852968412     0.3703155704     0.9490949403
Bq        -1.4854799045     0.5038496800     0.9956632561
Bq        -1.4847719133     0.4168842460     0.8155618623
Bq        -1.4858339001     0.5473323970     1.0857139530
Bq        -1.4844179178     0.3734015290     0.7255111655
Bq        -1.4861878956     0.5908151140     1.1757646499
Bq        -1.4840639222     0.3299188120     0.6354604686
Bq        -1.4865418912     0.6342978311     1.2658153468
Bq        -1.4837099266     0.2864360950     0.5454097717
Bq        -1.4868958868     0.6777805481     1.3558660436
Bq        -1.4833559310     0.2429533780     0.4553590748
Bq        -1.4851259089     0.4603669630     0.9056125592
Bq        -1.4853089722     0.5939010727     0.9521808751
Bq        -1.4846009811     0.5069356387     0.7720794813
Bq        -1.4856629678     0.6373837897     1.0422315720
Bq        -1.4842469855     0.4634529217     0.6820287844
Bq        -1.4860169634     0.6808665067     1.1322822688
Bq        -1.4838929899     0.4199702047     0.5919780876
Bq        -1.4863709589     0.7243492237     1.2223329657
Bq        -1.4835389943     0.3764874877     0.5019273907
Bq        -1.4867249545     0.7678319407     1.3123836626
Bq        -1.4831849988     0.3330047707     0.4118766938
Bq        -1.4849549766     0.5504183557     0.8621301782
Bq        -1.4851380399     0.6839524654     0.9086984940
Bq        -1.4844300488     0.5969870314     0.7285971003
Bq        -1.4854920355     0.7274351824     0.9987491909
Bq        -1.4840760532     0.5535043144     0.6385464034
Bq        -1.4858460311     0.7709178994     1.0887998878
Bq        -1.4837220576     0.5100215974     0.5484957065
Bq        -1.4862000267     0.8144006164     1.1788505847
Bq        -1.4833680621     0.4665388804     0.4584450096
Bq        -1.4865540222     0.8578833334     1.2689012816
Bq        -1.4830140665     0.4230561634     0.3683943128
Bq        -1.4847840444     0.6404697484     0.8186477972
Bq        -1.4849671077     0.7740038581     0.8652161130
Bq        -1.4842591165     0.6870384240     0.6851147193
Bq        -1.4853211032     0.8174865751     0.9552668099
Bq        -1.4839051209     0.6435557070     0.5950640224
Bq        -1.4856750988     0.8609692921     1.0453175068
Bq        -1.4835511254     0.6000729900     0.5050133255
Bq        -1.4860290944     0.9044520091     1.1353682037
Bq        -1.4831971298     0.5565902730     0.4149626286
Bq        -1.4863830900     0.9479347261     1.2254189005
Bq        -1.4828431342     0.5131075560     0.3249119317
Bq        -1.4846131121     0.7305211410     0.7751654161
Bq        -1.4847961754     0.8640552507     0.8217337320
Bq        -1.4840881842     0.7770898167     0.6416323382
Bq        -1.4851501710     0.9075379677     0.9117844289
Bq        -1.4837341887     0.7336070997     0.5515816413
Bq        -1.4855041665     0.9510206847     1.0018351257
Bq        -1.4833801931     0.6901243827     0.4615309445
Bq        -1.4858581621     0.9945034017     1.0918858226
Bq        -1.4830261975     0.6466416657     0.3714802476
Bq        -1.4862121577     1.0379861187     1.1819365195
Bq        -1.4826722019     0.6031589487     0.2814295507
Bq        -1.4844421798     0.8205725337     0.7316830351
Bq        -1.4846252431     0.9541066434     0.7782513510
Bq        -1.4839172520     0.8671412094     0.5981499572
Bq        -1.4849792387     0.9975893604     0.8683020478
Bq        -1.4835632564     0.8236584924     0.5080992603
Bq        -1.4853332343     1.0410720774     0.9583527447
Bq        -1.4832092608     0.7801757754     0.4180485634
Bq        -1.4856872298     1.0845547944     1.0484034416
Bq        -1.4828552652     0.7366930584     0.3279978665
Bq        -1.4860412254     1.1280375114     1.1384541385
Bq        -1.4825012697     0.6932103414     0.2379471697
Bq        -1.4842712475     0.9106239264     0.6882006541
Bq        -1.4844543108     1.0441580361     0.7347689699
Bq        -1.4837463197     0.9571926021     0.5546675762
Bq        -1.4848083064     1.0876407531     0.8248196668
Bq        -1.4833923241     0.9137098850     0.4646168793
Bq        -1.4851623020     1.1311234701     0.9148703637
Bq        -1.4830383285     0.8702271680     0.3745661824
Bq        -1.4855162976     1.1746061871     1.0049210606
Bq        -1.4826843330     0.8267444510     0.2845154855
Bq        -1.4858702931     1.2180889041     1.0949717574
Bq        -1.4823303374     0.7832617340     0.1944647886
Bq        -1.4841003153     1.0006753191     0.6447182730
Bq        -1.4842833786     1.1342094287     0.6912865889
Bq        -1.4835753874     1.0472439947     0.5111851951
Bq        -1.4846373741     1.1776921457     0.7813372858
Bq        -1.4832213918     1.0037612777     0.4211344982
Bq        -1.4849913697     1.2211748627     0.8713879827
Bq        -1.4828673963     0.9602785607     0.3310838014
Bq        -1.4853453653     1.2646575797     0.9614386795
Bq        -1.4825134007     0.9167958437     0.2410331045
Bq        -1.4856993609     1.3081402968     1.0514893764
Bq        -1.4821594051     0.8733131267     0.1509824076
Bq        -1.4839293830     1.0907267117     0.6012358920
Bq        -1.4841124463     1.2242608214     0.6478042079
Bq        -1.4834044551     1.1372953874     0.4677028141
Bq        -1.4844664419     1.2677435384     0.7378549047
Bq        -1.4830504596     1.0938126704     0.3776521172
Bq        -1.4848204374     1.3112262554     0.8279056016
Bq        -1.4826964640     1.0503299534     0.2876014203
Bq        -1.4851744330     1.3547089724     0.9179562985
Bq        -1.4823424684     1.0068472364     0.1975507234
Bq        -1.4855284286     1.3981916894     1.0080069954
Bq        -1.4819884728     0.9633645194     0.1075000266
Bq        -1.4837584507     1.1807781044     0.5577535110
Bq        -1.4839415140     1.3143122141     0.6043218268
Bq        -1.4832335229     1.2273467801     0.4242204331
Bq        -1.4842955096     1.3577949311     0.6943725237
Bq        -1.4828795273     1.1838640631     0.3341697362
Bq        -1.4846495052     1.4012776481     0.7844232206
Bq        -1.4825255317     1.1403813461     0.2441190393
Bq        -1.4850035007     1.4447603651     0.8744739175
Bq        -1.4821715361     1.0968986291     0.1540683424
Bq        -1.4853574963     1.4882430821     0.9645246144
Bq        -1.4818175406     1.0534159120     0.0640176455
Bq        -1.4835875184     1.2708294971     0.5142711299
Bq        -1.4837705817     1.4043636067     0.5608394458
Bq        -1.4830625906     1.3173981727     0.3807380520
Bq        -1.4841245773     1.4478463237     0.6508901427
Bq        -1.4827085950     1.2739154557     0.2906873551
Bq        -1.4844785729     1.4913290408     0.7409408396
Bq        -1.4823545994     1.2304327387     0.2006366583
Bq        -1.4848325685     1.5348117578     0.8309915364
Bq        -1.4820006039     1.1869500217     0.1105859614
Bq        -1.4851865640     1.5782944748     0.9210422333
Bq        -1.4816466083     1.1434673047     0.0205352645
Bq        -1.4834165862     1.3608808897     0.4707887489
Bq        -1.4835996495     1.4944149994     0.5173570648
Bq        -1.4828916583     1.4074495654     0.3372556710
Bq        -1.4839536450     1.5378977164     0.6074077616
Bq        -1.4825376627     1.3639668484     0.2472049741
Bq        -1.4843076406     1.5813804334     0.6974584585
Bq        -1.4821836672     1.3204841314     0.1571542772
Bq        -1.4846616362     1.6248631504     0.7875091554
Bq        -1.4818296716     1.2770014144     0.0671035803
Bq        -1.4850156318     1.6683458674     0.8775598523
Bq        -1.4814756760     1.2335186974    -0.0229471165
Bq        -1.4832456539     1.4509322824     0.4273063679
Bq        -1.4834287172     1.5844663921     0.4738746837
Bq        -1.4827207260     1.4975009581     0.2937732900
Bq        -1.4837827128     1.6279491091     0.5639253806
Bq        -1.4823667305     1.4540182411     0.2037225931
Bq        -1.4841367083     1.6714318261     0.6539760775
Bq        -1.4820127349     1.4105355241     0.1136718962
Bq        -1.4844907039     1.7149145431     0.7440267744
Bq        -1.4816587393     1.3670528071     0.0236211993
Bq        -1.4848446995     1.7583972601     0.8340774713
Bq        -1.4813047437     1.3235700901    -0.0664294976
Bq        -1.4830747216     1.5409836751     0.3838239868
Bq        -1.4832577849     1.6745177848     0.4303923027
Bq        -1.4825497938     1.5875523507     0.2502909089
Bq        -1.4836117805     1.7180005018     0.5204429996
Bq        -1.4821957982     1.5440696337     0.1602402120
Bq        -1.4839657761     1.7614832188     0.6104936965
Bq        -1.4818418026     1.5005869167     0.0701895152
Bq        -1.4843197716     1.8049659358     0.7005443933
Bq        -1.4814878070     1.4571041997    -0.0198611817
Bq        -1.4846737672     1.8484486528     0.7905950902
Bq        -1.4811338115     1.4136214827    -0.1099118786
Bq        -1.4829037893     1.6310350678     0.3403416058
Bq        -1.4830868526     1.7645691774     0.3869099217
Bq        -1.4823788615     1.6776037434     0.2068085279
Bq        -1.4834408482     1.8080518944     0.4769606185
Bq        -1.4820248659     1.6341210264     0.1167578310
Bq        -1.4837948438     1.8515346114     0.5670113154
Bq        -1.4816708703     1.5906383094     0.0267071341
Bq        -1.4841488394     1.8950173284     0.6570620123
Bq        -1.4813168748     1.5471555924    -0.0633435628
Bq        -1.4845028349     1.9385000454     0.7471127092
Bq        -1.4809628792     1.5036728754    -0.1533942596
Bq        -1.4827328571     1.7210864604     0.2968592248
Bq        -1.4829159204     1.8546205701     0.3434275406
Bq        -1.4822079292     1.7676551361     0.1633261469
Bq        -1.4832699159     1.8981032871     0.4334782375
Bq        -1.4818539336     1.7241724191     0.0732754500
Bq        -1.4836239115     1.9415860041     0.5235289344
Bq        -1.4814999381     1.6806897021    -0.0167752469
Bq        -1.4839779071     1.9850687211     0.6135796313
Bq        -1.4811459425     1.6372069851    -0.1068259438

1
2
3
4
5
6
7
8
9
10
11
12
13
14
15
16
17
18
19
20
21
22
23
24
25
26
27
28
29
30
31
32
33
34
35
36
37
38
39
40
41
42
43
44
45
46
47
48
49
50
51
52
53
54
55
56
57
58
59
60
61
62
63
64
65
66
67
68
69
70
71
72
73
74
75
76
77
78
79
80
81
82
83
84
85
86
87
88
89
90
91
92
93
94
95
96
97
98
99
100
101
102
103
104
105
106
107
108
109
110
111
112
113
114
115
116
117
118
119
120
121
122
123
124
125
126
127
128
129
130
131
132
133
134
135
136
137
138
139
140
141
142
143
144
145
146
147
148
149
150
151
152
153
154
155
156
157
158
159
160
161
162
163
164
165
166
167
168
169
170
171
172
173
174
175
176
177
178
179
180
181
182
183
184
185
186
187
188
189
190
191
192
193
194
195
196
197
198
199
200
201
202
203
204
205
206
207
208
209
210
211
212
213
214
215
216
217
218
219
220
221
222
223
224
225
226
227
228
229
230
231
232
233
234
235
236

