%nproc=8
%mem=1000MB
# rb3lyp/6-311+g** NMR geom=connectivity

Title

0 1
C    -4.0500558   -0.5771862    0.8136712
H    -5.0263804   -1.0082727    1.0024760
C    -3.9381552    0.6617804    0.2400876
H    -4.8252424    1.2338890   -0.0111295
C    -2.6768410    1.2433246    0.0057578
C    -1.4974121    0.5051527    0.2848253
C    -1.6508332   -0.7338728    0.9404026
H    -0.7713646   -1.2730967    1.2633753
C    -2.8898548   -1.2624035    1.1994307
H    -2.9683706   -2.2124563    1.7152676
C    -2.5773185    2.5963696   -0.4192930
H    -3.4870728    3.1412239   -0.6474055
C    -1.3741895    3.2147896   -0.4364030
H    -1.2997315    4.2742019   -0.6578144
C    -0.1719488    2.4994090   -0.1734588
C    -0.2043917    1.1018437    0.0192689
C     1.0513491    3.2042560   -0.0676222
H     1.0427344    4.2819499   -0.1896997
C     2.1942091    2.5487446    0.2579577
H     3.1168527    3.0912848    0.4334727
C     2.2216473    1.1336562    0.2934990
C     1.0486931    0.3945528    0.0302412
C     3.4483363    0.4614633    0.5573939
H     4.3095794    1.0606054    0.8334846
C     3.5427346   -0.8855926    0.4749463
H     4.4731467   -1.3939704    0.7038822
C     2.4490052   -1.6474447   -0.0196319
C     1.2150704   -1.0057258   -0.3013573
C     0.2531113   -1.7434440   -1.0216591
H    -0.6541356   -1.2535051   -1.3462847
C     0.4494193   -3.0628597   -1.3413779
H    -0.3083162   -3.5944309   -1.9054060
C     1.6251726   -3.7207967   -0.9552541
H     1.7670048   -4.7687404   -1.1927019
C     2.6109872   -3.0144177   -0.3183050
H     3.5525612   -3.4902813   -0.0646367
Bq        -2.3851310860     0.6839524654     0.9051605586
Bq        -2.3844230949     0.5969870314     0.7250591648
Bq        -2.3854850816     0.7274351824     0.9952112555
Bq        -2.3840690993     0.5535043144     0.6350084679
Bq        -2.3858390772     0.7709178994     1.0852619523
Bq        -2.3837151037     0.5100215974     0.5449577710
Bq        -2.3861930728     0.8144006164     1.1753126492
Bq        -2.3833611082     0.4665388804     0.4549070742
Bq        -2.3865470683     0.8578833334     1.2653633461
Bq        -2.3830071126     0.4230561634     0.3648563773
Bq        -2.3847770905     0.6404697484     0.8151098617
Bq        -2.3849601538     0.7740038581     0.8616781775
Bq        -2.3842521626     0.6870384240     0.6815767838
Bq        -2.3853141493     0.8174865751     0.9517288744
Bq        -2.3838981670     0.6435557070     0.5915260869
Bq        -2.3856681449     0.8609692921     1.0417795713
Bq        -2.3835441715     0.6000729900     0.5014753900
Bq        -2.3860221405     0.9044520091     1.1318302682
Bq        -2.3831901759     0.5565902730     0.4114246931
Bq        -2.3863761361     0.9479347261     1.2218809651
Bq        -2.3828361803     0.5131075560     0.3213739962
Bq        -2.3846061582     0.7305211410     0.7716274807
Bq        -2.3847892215     0.8640552507     0.8181957965
Bq        -2.3840812303     0.7770898167     0.6380944027
Bq        -2.3851432171     0.9075379677     0.9082464934
Bq        -2.3837272348     0.7336070997     0.5480437059
Bq        -2.3854972126     0.9510206847     0.9982971903
Bq        -2.3833732392     0.6901243827     0.4579930090
Bq        -2.3858512082     0.9945034017     1.0883478872
Bq        -2.3830192436     0.6466416657     0.3679423121
Bq        -2.3862052038     1.0379861187     1.1783985840
Bq        -2.3826652480     0.6031589487     0.2778916152
Bq        -2.3844352259     0.8205725337     0.7281450996
Bq        -2.3846182892     0.9541066434     0.7747134155
Bq        -2.3839102981     0.8671412094     0.5946120217
Bq        -2.3849722848     0.9975893604     0.8647641124
Bq        -2.3835563025     0.8236584924     0.5045613248
Bq        -2.3853262804     1.0410720774     0.9548148092
Bq        -2.3832023069     0.7801757754     0.4145106279
Bq        -2.3856802759     1.0845547944     1.0448655061
Bq        -2.3828483113     0.7366930584     0.3244599311
Bq        -2.3860342715     1.1280375114     1.1349162030
Bq        -2.3824943158     0.6932103414     0.2344092342
Bq        -2.3842642936     0.9106239264     0.6846627186
Bq        -2.3844473569     1.0441580361     0.7312310344
Bq        -2.3837393658     0.9571926021     0.5511296407
Bq        -2.3848013525     1.0876407531     0.8212817313
Bq        -2.3833853702     0.9137098850     0.4610789438
Bq        -2.3851553481     1.1311234701     0.9113324282
Bq        -2.3830313746     0.8702271680     0.3710282469
Bq        -2.3855093437     1.1746061871     1.0013831251
Bq        -2.3826773791     0.8267444510     0.2809775500
Bq        -2.3858633392     1.2180889041     1.0914338220
Bq        -2.3823233835     0.7832617340     0.1909268531
Bq        -2.3840933614     1.0006753191     0.6411803376
Bq        -2.3842764247     1.1342094287     0.6877486534
Bq        -2.3835684335     1.0472439947     0.5076472596
Bq        -2.3846304202     1.1776921457     0.7777993503
Bq        -2.3832144379     1.0037612777     0.4175965628
Bq        -2.3849844158     1.2211748627     0.8678500472
Bq        -2.3828604424     0.9602785607     0.3275458659
Bq        -2.3853384114     1.2646575797     0.9579007441
Bq        -2.3825064468     0.9167958437     0.2374951690
Bq        -2.3856924070     1.3081402968     1.0479514409
Bq        -2.3821524512     0.8733131267     0.1474444721
Bq        -2.3839224291     1.0907267117     0.5976979565
Bq        -2.3841054924     1.2242608214     0.6442662724
Bq        -2.3833975012     1.1372953874     0.4641648786
Bq        -2.3844594880     1.2677435384     0.7343169693
Bq        -2.3830435057     1.0938126704     0.3741141817
Bq        -2.3848134835     1.3112262554     0.8243676661
Bq        -2.3826895101     1.0503299534     0.2840634848
Bq        -2.3851674791     1.3547089724     0.9144183630
Bq        -2.3823355145     1.0068472364     0.1940127880
Bq        -2.3855214747     1.3981916894     1.0044690599
Bq        -2.3819815189     0.9633645194     0.1039620911
Bq        -2.3837514968     1.1807781044     0.5542155755
Bq        -2.3839345601     1.3143122141     0.6007838913
Bq        -2.3832265690     1.2273467801     0.4206824976
Bq        -2.3842885557     1.3577949311     0.6908345882
Bq        -2.3828725734     1.1838640631     0.3306318007
Bq        -2.3846425513     1.4012776481     0.7808852851
Bq        -2.3825185778     1.1403813461     0.2405811038
Bq        -2.3849965468     1.4447603651     0.8709359820
Bq        -2.3821645822     1.0968986291     0.1505304069
Bq        -2.3853505424     1.4882430821     0.9609866789
Bq        -2.3818105867     1.0534159120     0.0604797100
Bq        -2.3835805645     1.2708294971     0.5107331945
Bq        -2.3837636278     1.4043636067     0.5573015103
Bq        -2.3830556367     1.3173981727     0.3772001165
Bq        -2.3841176234     1.4478463237     0.6473522072
Bq        -2.3827016411     1.2739154557     0.2871494197
Bq        -2.3844716190     1.4913290408     0.7374029041
Bq        -2.3823476455     1.2304327387     0.1970987228
Bq        -2.3848256146     1.5348117578     0.8274536010
Bq        -2.3819936500     1.1869500217     0.1070480259
Bq        -2.3851796101     1.5782944748     0.9175042978
Bq        -2.3816396544     1.1434673047     0.0169973290
Bq        -2.3834096323     1.3608808897     0.4672508134
Bq        -2.3835926956     1.4944149994     0.5138191293
Bq        -2.3828847044     1.4074495654     0.3337177355
Bq        -2.3839466911     1.5378977164     0.6038698262
Bq        -2.3825307088     1.3639668484     0.2436670386
Bq        -2.3843006867     1.5813804334     0.6939205230
Bq        -2.3821767133     1.3204841314     0.1536163417
Bq        -2.3846546823     1.6248631504     0.7839712199
Bq        -2.3818227177     1.2770014144     0.0635656449
Bq        -2.3850086779     1.6683458674     0.8740219168
Bq        -2.3814687221     1.2335186974    -0.0264850520
Bq        -2.3832387000     1.4509322824     0.4237684324
Bq        -2.3834217633     1.5844663921     0.4703367482
Bq        -2.3827137721     1.4975009581     0.2902353545
Bq        -2.3837757589     1.6279491091     0.5603874451
Bq        -2.3823597766     1.4540182411     0.2001846576
Bq        -2.3841297544     1.6714318261     0.6504381420
Bq        -2.3820057810     1.4105355241     0.1101339607
Bq        -2.3844837500     1.7149145431     0.7404888389
Bq        -2.3816517854     1.3670528071     0.0200832638
Bq        -2.3848377456     1.7583972601     0.8305395358
Bq        -2.3812977898     1.3235700901    -0.0699674331
Bq        -2.3830677677     1.5409836751     0.3802860514
Bq        -2.3832508310     1.6745177848     0.4268543672
Bq        -2.3825428399     1.5875523507     0.2467529734
Bq        -2.3836048266     1.7180005018     0.5169050641
Bq        -2.3821888443     1.5440696337     0.1567022766
Bq        -2.3839588222     1.7614832188     0.6069557610
Bq        -2.3818348487     1.5005869167     0.0666515797
Bq        -2.3843128177     1.8049659358     0.6970064579
Bq        -2.3814808531     1.4571041997    -0.0233991172
Bq        -2.3846668133     1.8484486528     0.7870571547
Bq        -2.3811268576     1.4136214827    -0.1134498141
Bq        -2.3828968354     1.6310350678     0.3368036703
Bq        -2.3830798987     1.7645691774     0.3833719862
Bq        -2.3823719076     1.6776037434     0.2032705924
Bq        -2.3834338943     1.8080518944     0.4734226831
Bq        -2.3820179120     1.6341210264     0.1132198955
Bq        -2.3837878899     1.8515346114     0.5634733799
Bq        -2.3816639164     1.5906383094     0.0231691986
Bq        -2.3841418855     1.8950173284     0.6535240768
Bq        -2.3813099209     1.5471555924    -0.0668814982
Bq        -2.3844958810     1.9385000454     0.7435747737
Bq        -2.3809559253     1.5036728754    -0.1569321951
Bq        -2.3827259032     1.7210864604     0.2933212893
Bq        -2.3829089665     1.8546205701     0.3398896051
Bq        -2.3822009753     1.7676551361     0.1597882114
Bq        -2.3832629620     1.8981032871     0.4299403020
Bq        -2.3818469797     1.7241724191     0.0697375145
Bq        -2.3836169576     1.9415860041     0.5199909989
Bq        -2.3814929842     1.6806897021    -0.0203131824
Bq        -2.3839709532     1.9850687211     0.6100416958
Bq        -2.3811389886     1.6372069851    -0.1103638793
Bq        -2.3843249488     2.0285514381     0.7000923927
Bq        -2.3807849930     1.5937242681    -0.2004145761
Bq        -2.3825549709     1.8111378531     0.2498389083
Bq        -2.3827380342     1.9446719628     0.2964072241
Bq        -2.3820300430     1.8577065288     0.1163058303
Bq        -2.3830920298     1.9881546798     0.3864579210
Bq        -2.3816760475     1.8142238118     0.0262551335
Bq        -2.3834460253     2.0316373968     0.4765086179
Bq        -2.3813220519     1.7707410947    -0.0637955634
Bq        -2.3838000209     2.0751201138     0.5665593148
Bq        -2.3809680563     1.7272583777    -0.1538462603
Bq        -2.3841540165     2.1186028308     0.6566100116
Bq        -2.3806140607     1.6837756607    -0.2438969572
Bq        -2.3823840386     1.9011892458     0.2063565272
Bq        -2.3825671019     2.0347233554     0.2529248431
Bq        -2.3818591108     1.9477579214     0.0728234493
Bq        -2.3829210975     2.0782060724     0.3429755400
Bq        -2.3815051152     1.9042752044    -0.0172272476
Bq        -2.3832750931     2.1216887894     0.4330262368
Bq        -2.3811511196     1.8607924874    -0.1072779444
Bq        -2.3836290886     2.1651715065     0.5230769337
Bq        -2.3807971240     1.8173097704    -0.1973286413
Bq        -2.3839830842     2.2086542235     0.6131276306
Bq        -2.3804431285     1.7738270534    -0.2873793382
Bq        -2.3822131063     1.9912406384     0.1628741462
Bq        -2.3823961696     2.1247747481     0.2094424620
Bq        -2.3816881785     2.0378093141     0.0293410683
Bq        -2.3827501652     2.1682574651     0.2994931589
Bq        -2.3813341829     1.9943265971    -0.0607096286
Bq        -2.3831041608     2.2117401821     0.3895438558
Bq        -2.3809801873     1.9508438801    -0.1507603255
Bq        -2.3834581564     2.2552228991     0.4795945527
Bq        -2.3806261918     1.9073611631    -0.2408110224
Bq        -2.3838121519     2.2987056161     0.5696452496
Bq        -2.3802721962     1.8638784461    -0.3308617192
Bq        -2.3820421741     2.0812920311     0.1193917652
Bq        -2.3822252374     2.2148261408     0.1659600810
Bq        -2.3815172462     2.1278607068    -0.0141413127
Bq        -2.3825792329     2.2583088578     0.2560107779
Bq        -2.3811632506     2.0843779898    -0.1041920096
Bq        -2.3829332285     2.3017915748     0.3460614748
Bq        -2.3808092551     2.0408952728    -0.1942427065
Bq        -2.3832872241     2.3452742918     0.4361121717
Bq        -2.3804552595     1.9974125558    -0.2842934034
Bq        -2.3836412197     2.3887570088     0.5261628685
Bq        -2.3801012639     1.9539298388    -0.3743441003
Bq        -2.3818712418     2.1713434238     0.0759093841
Bq        -2.3820543051     2.3048775334     0.1224777000
Bq        -2.3813463139     2.2179120994    -0.0576236938

1
2
3
4
5
6
7
8
9
10
11
12
13
14
15
16
17
18
19
20
21
22
23
24
25
26
27
28
29
30
31
32
33
34
35
36
37
38
39
40
41
42
43
44
45
46
47
48
49
50
51
52
53
54
55
56
57
58
59
60
61
62
63
64
65
66
67
68
69
70
71
72
73
74
75
76
77
78
79
80
81
82
83
84
85
86
87
88
89
90
91
92
93
94
95
96
97
98
99
100
101
102
103
104
105
106
107
108
109
110
111
112
113
114
115
116
117
118
119
120
121
122
123
124
125
126
127
128
129
130
131
132
133
134
135
136
137
138
139
140
141
142
143
144
145
146
147
148
149
150
151
152
153
154
155
156
157
158
159
160
161
162
163
164
165
166
167
168
169
170
171
172
173
174
175
176
177
178
179
180
181
182
183
184
185
186
187
188
189
190
191
192
193
194
195
196
197
198
199
200
201
202
203
204
205
206
207
208
209
210
211
212
213
214
215
216
217
218
219
220
221
222
223
224
225
226
227
228
229
230
231
232
233
234
235
236

