%nproc=8
%mem=1000MB
# rb3lyp/6-311+g** NMR geom=connectivity

Title

0 1
C    -4.0500558   -0.5771862    0.8136712
H    -5.0263804   -1.0082727    1.0024760
C    -3.9381552    0.6617804    0.2400876
H    -4.8252424    1.2338890   -0.0111295
C    -2.6768410    1.2433246    0.0057578
C    -1.4974121    0.5051527    0.2848253
C    -1.6508332   -0.7338728    0.9404026
H    -0.7713646   -1.2730967    1.2633753
C    -2.8898548   -1.2624035    1.1994307
H    -2.9683706   -2.2124563    1.7152676
C    -2.5773185    2.5963696   -0.4192930
H    -3.4870728    3.1412239   -0.6474055
C    -1.3741895    3.2147896   -0.4364030
H    -1.2997315    4.2742019   -0.6578144
C    -0.1719488    2.4994090   -0.1734588
C    -0.2043917    1.1018437    0.0192689
C     1.0513491    3.2042560   -0.0676222
H     1.0427344    4.2819499   -0.1896997
C     2.1942091    2.5487446    0.2579577
H     3.1168527    3.0912848    0.4334727
C     2.2216473    1.1336562    0.2934990
C     1.0486931    0.3945528    0.0302412
C     3.4483363    0.4614633    0.5573939
H     4.3095794    1.0606054    0.8334846
C     3.5427346   -0.8855926    0.4749463
H     4.4731467   -1.3939704    0.7038822
C     2.4490052   -1.6474447   -0.0196319
C     1.2150704   -1.0057258   -0.3013573
C     0.2531113   -1.7434440   -1.0216591
H    -0.6541356   -1.2535051   -1.3462847
C     0.4494193   -3.0628597   -1.3413779
H    -0.3083162   -3.5944309   -1.9054060
C     1.6251726   -3.7207967   -0.9552541
H     1.7670048   -4.7687404   -1.1927019
C     2.6109872   -3.0144177   -0.3183050
H     3.5525612   -3.4902813   -0.0646367
Bq        -0.4878321588    -1.6512118267     1.5960038907
Bq        -0.4903101278    -1.3468328077     2.2263587689
Bq        -0.4874781632    -1.6946945437     1.5059531938
Bq        -0.4906641234    -1.3033500907     2.3164094658
Bq        -0.4871241677    -1.7381772607     1.4159024970
Bq        -0.4888941455    -1.5207636757     1.8661559814
Bq        -0.4890772088    -1.3872295660     1.9127242972
Bq        -0.4883692177    -1.4741950001     1.7326229035
Bq        -0.4894312044    -1.3437468490     2.0027749941
Bq        -0.4880152221    -1.5176777171     1.6425722066
Bq        -0.4897852000    -1.3002641320     2.0928256910
Bq        -0.4876612265    -1.5611604341     1.5525215097
Bq        -0.4901391955    -1.2567814150     2.1828763879
Bq        -0.4873072310    -1.6046431511     1.4624708128
Bq        -0.4904931911    -1.2132986980     2.2729270847
Bq        -0.4869532354    -1.6481258681     1.3724201159
Bq        -0.4887232133    -1.4307122830     1.8226736003
Bq        -0.4889062766    -1.2971781734     1.8692419162
Bq        -0.4881982854    -1.3841436074     1.6891405224
Bq        -0.4892602721    -1.2536954564     1.9592926131
Bq        -0.4878442898    -1.4276263244     1.5990898255
Bq        -0.4896142677    -1.2102127394     2.0493433099
Bq        -0.4874902943    -1.4711090414     1.5090391287
Bq        -0.4899682633    -1.1667300224     2.1393940068
Bq        -0.4871362987    -1.5145917584     1.4189884318
Bq        -0.4903222588    -1.1232473054     2.2294447037
Bq        -0.4867823031    -1.5580744754     1.3289377349
Bq        -0.4885522810    -1.3406608904     1.7791912193
Bq        -0.4887353443    -1.2071267807     1.8257595352
Bq        -0.4880273531    -1.2940922147     1.6456581414
Bq        -0.4890893399    -1.1636440637     1.9158102320
Bq        -0.4876733576    -1.3375749317     1.5556074445
Bq        -0.4894433354    -1.1201613467     2.0058609289
Bq        -0.4873193620    -1.3810576487     1.4655567476
Bq        -0.4897973310    -1.0766786297     2.0959116258
Bq        -0.4869653664    -1.4245403657     1.3755060507
Bq        -0.4901513266    -1.0331959127     2.1859623227
Bq        -0.4866113708    -1.4680230827     1.2854553539
Bq        -0.4883813487    -1.2506094977     1.7357088383
Bq        -0.4885644120    -1.1170753880     1.7822771541
Bq        -0.4878564209    -1.2040408220     1.6021757604
Bq        -0.4889184076    -1.0735926710     1.8723278510
Bq        -0.4875024253    -1.2475235390     1.5121250635
Bq        -0.4892724032    -1.0301099540     1.9623785479
Bq        -0.4871484297    -1.2910062560     1.4220743666
Bq        -0.4896263987    -0.9866272370     2.0524292448
Bq        -0.4867944341    -1.3344889731     1.3320236697
Bq        -0.4899803943    -0.9431445200     2.1424799417
Bq        -0.4864404386    -1.3779716901     1.2419729728
Bq        -0.4882104164    -1.1605581050     1.6922264572
Bq        -0.4883934797    -1.0270239954     1.7387947731
Bq        -0.4876854886    -1.1139894294     1.5586933793
Bq        -0.4887474753    -0.9835412784     1.8288454700
Bq        -0.4873314930    -1.1574721464     1.4686426824
Bq        -0.4891014709    -0.9400585614     1.9188961669
Bq        -0.4869774974    -1.2009548634     1.3785919856
Bq        -0.4894554665    -0.8965758443     2.0089468637
Bq        -0.4866235019    -1.2444375804     1.2885412887
Bq        -0.4898094620    -0.8530931273     2.0989975606
Bq        -0.4862695063    -1.2879202974     1.1984905918
Bq        -0.4880394842    -1.0705067124     1.6487440762
Bq        -0.4882225475    -0.9369726027     1.6953123921
Bq        -0.4875145563    -1.0239380367     1.5152109983
Bq        -0.4885765430    -0.8934898857     1.7853630889
Bq        -0.4871605607    -1.0674207537     1.4251603014
Bq        -0.4889305386    -0.8500071687     1.8754137858
Bq        -0.4868065652    -1.1109034707     1.3351096045
Bq        -0.4892845342    -0.8065244517     1.9654644827
Bq        -0.4864525696    -1.1543861877     1.2450589076
Bq        -0.4896385298    -0.7630417347     2.0555151796
Bq        -0.4860985740    -1.1978689047     1.1550082108
Bq        -0.4878685519    -0.9804553197     1.6052616952
Bq        -0.4880516152    -0.8469212100     1.6518300110
Bq        -0.4873436240    -0.9338866440     1.4717286173
Bq        -0.4884056108    -0.8034384930     1.7418807079
Bq        -0.4869896285    -0.9773693610     1.3816779204
Bq        -0.4887596063    -0.7599557760     1.8319314048
Bq        -0.4866356329    -1.0208520780     1.2916272235
Bq        -0.4891136019    -0.7164730590     1.9219821017
Bq        -0.4862816373    -1.0643347950     1.2015765266
Bq        -0.4894675975    -0.6729903420     2.0120327986
Bq        -0.4859276417    -1.1078175120     1.1115258297
Bq        -0.4876976196    -0.8904039270     1.5617793141
Bq        -0.4878806829    -0.7568698173     1.6083476300
Bq        -0.4871726918    -0.8438352514     1.4282462362
Bq        -0.4882346785    -0.7133871003     1.6983983269
Bq        -0.4868186962    -0.8873179684     1.3381955393
Bq        -0.4885886741    -0.6699043833     1.7884490238
Bq        -0.4864647006    -0.9308006854     1.2481448425
Bq        -0.4889426696    -0.6264216663     1.8784997206
Bq        -0.4861107050    -0.9742834024     1.1580941456
Bq        -0.4892966652    -0.5829389493     1.9685504175
Bq        -0.4857567095    -1.0177661194     1.0680434487
Bq        -0.4875266873    -0.8003525344     1.5182969331
Bq        -0.4877097506    -0.6668184247     1.5648652490
Bq        -0.4870017595    -0.7537838587     1.3847638552
Bq        -0.4880637462    -0.6233357077     1.6549159458
Bq        -0.4866477639    -0.7972665757     1.2947131583
Bq        -0.4884177418    -0.5798529907     1.7449666427
Bq        -0.4862937683    -0.8407492927     1.2046624614
Bq        -0.4887717374    -0.5363702737     1.8350173396
Bq        -0.4859397728    -0.8842320097     1.1146117645
Bq        -0.4891257329    -0.4928875567     1.9250680365
Bq        -0.4855857772    -0.9277147267     1.0245610677
Bq        -0.4873557551    -0.7103011417     1.4748145521
Bq        -0.4875388184    -0.5767670320     1.5213828679
Bq        -0.4868308272    -0.6637324660     1.3412814742
Bq        -0.4878928139    -0.5332843150     1.6114335648
Bq        -0.4864768316    -0.7072151830     1.2512307773
Bq        -0.4882468095    -0.4898015980     1.7014842617
Bq        -0.4861228361    -0.7506979000     1.1611800804
Bq        -0.4886008051    -0.4463188810     1.7915349586
Bq        -0.4857688405    -0.7941806170     1.0711293835
Bq        -0.4889548007    -0.4028361640     1.8815856555
Bq        -0.4854148449    -0.8376633340     0.9810786866
Bq        -0.4871848228    -0.6202497490     1.4313321710
Bq        -0.4873678861    -0.4867156393     1.4779004869
Bq        -0.4866598949    -0.5736810733     1.2977990931
Bq        -0.4877218817    -0.4432329223     1.5679511838
Bq        -0.4863058994    -0.6171637904     1.2077483962
Bq        -0.4880758772    -0.3997502053     1.6580018807
Bq        -0.4859519038    -0.6606465074     1.1176976994
Bq        -0.4884298728    -0.3562674883     1.7480525775
Bq        -0.4855979082    -0.7041292244     1.0276470025
Bq        -0.4887838684    -0.3127847713     1.8381032744
Bq        -0.4852439126    -0.7476119414     0.9375963056
Bq        -0.4870138905    -0.5301983563     1.3878497900
Bq        -0.4871969538    -0.3966642467     1.4344181059
Bq        -0.4864889627    -0.4836296807     1.2543167121
Bq        -0.4875509494    -0.3531815297     1.5244688027
Bq        -0.4861349671    -0.5271123977     1.1642660152
Bq        -0.4879049450    -0.3096988127     1.6145194996
Bq        -0.4857809715    -0.5705951147     1.0742153183
Bq        -0.4882589405    -0.2662160957     1.7045701965
Bq        -0.4854269759    -0.6140778317     0.9841646214
Bq        -0.4886129361    -0.2227333786     1.7946208934
Bq        -0.4850729804    -0.6575605487     0.8941139246
Bq        -0.4868429582    -0.4401469637     1.3443674090
Bq        -0.4870260215    -0.3066128540     1.3909357248
Bq        -0.4863180304    -0.3935782880     1.2108343311
Bq        -0.4873800171    -0.2631301370     1.4809864217
Bq        -0.4859640348    -0.4370610050     1.1207836342
Bq        -0.4877340127    -0.2196474200     1.5710371186
Bq        -0.4856100392    -0.4805437220     1.0307329373
Bq        -0.4880880083    -0.1761647030     1.6610878155
Bq        -0.4852560437    -0.5240264390     0.9406822404
Bq        -0.4884420038    -0.1326819860     1.7511385124
Bq        -0.4849020481    -0.5675091560     0.8506315435
Bq        -0.4866720260    -0.3500955710     1.3008850279
Bq        -0.4868550893    -0.2165614613     1.3474533438
Bq        -0.4861470981    -0.3035268953     1.1673519500
Bq        -0.4872090848    -0.1730787443     1.4375040407
Bq        -0.4857931025    -0.3470096123     1.0773012531
Bq        -0.4875630804    -0.1295960273     1.5275547376
Bq        -0.4854391070    -0.3904923293     0.9872505563
Bq        -0.4879170760    -0.0861133103     1.6176054344
Bq        -0.4850851114    -0.4339750463     0.8971998594
Bq        -0.4882710716    -0.0426305933     1.7076561313
Bq        -0.4847311158    -0.4774577634     0.8071491625
Bq        -0.4865010937    -0.2600441783     1.2574026469
Bq        -0.4866841570    -0.1265100687     1.3039709628
Bq        -0.4859761658    -0.2134755027     1.1238695690
Bq        -0.4870381526    -0.0830273517     1.3940216596
Bq        -0.4856221703    -0.2569582197     1.0338188721
Bq        -0.4873921481    -0.0395446346     1.4840723565
Bq        -0.4852681747    -0.3004409367     0.9437681752
Bq        -0.4877461437     0.0039380824     1.5741230534
Bq        -0.4849141791    -0.3439236537     0.8537174783
Bq        -0.4881001393     0.0474207994     1.6641737503
Bq        -0.4845601835    -0.3874063707     0.7636667815
Bq        -0.4863301614    -0.1699927857     1.2139202659
Bq        -0.4865132247    -0.0364586760     1.2604885817
Bq        -0.4858052336    -0.1234241100     1.0803871880
Bq        -0.4868672203     0.0070240410     1.3505392786
Bq        -0.4854512380    -0.1669068270     0.9903364911
Bq        -0.4872212159     0.0505067580     1.4405899755
Bq        -0.4850972424    -0.2103895440     0.9002857942
Bq        -0.4875752114     0.0939894750     1.5306406724
Bq        -0.4847432468    -0.2538722610     0.8102350973
Bq        -0.4879292070     0.1374721920     1.6206913693
Bq        -0.4843892513    -0.2973549780     0.7201844004
Bq        -0.4861592291    -0.0799413930     1.1704378848
Bq        -0.4863422924     0.0535927167     1.2170062007
Bq        -0.4856343013    -0.0333727173     1.0369048069
Bq        -0.4866962880     0.0970754337     1.3070568976
Bq        -0.4852803057    -0.0768554343     0.9468541101
Bq        -0.4870502836     0.1405581507     1.3971075945
Bq        -0.4849263101    -0.1203381513     0.8568034132
Bq        -0.4874042792     0.1840408677     1.4871582913
Bq        -0.4845723146    -0.1638208683     0.7667527163
Bq        -0.4877582747     0.2275235847     1.5772089882
Bq        -0.4842183190    -0.2073035853     0.6767020194
Bq        -0.4859882969     0.0101099997     1.1269555038
Bq        -0.4861713602     0.1436441094     1.1735238197
Bq        -0.4854633690     0.0566786753     0.9934224259
Bq        -0.4865253557     0.1871268264     1.2635745165
Bq        -0.4851093734     0.0131959583     0.9033717290
Bq        -0.4868793513     0.2306095434     1.3536252134
Bq        -0.4847553779    -0.0302867587     0.8133210321
Bq        -0.4872333469     0.2740922604     1.4436759103

1
2
3
4
5
6
7
8
9
10
11
12
13
14
15
16
17
18
19
20
21
22
23
24
25
26
27
28
29
30
31
32
33
34
35
36
37
38
39
40
41
42
43
44
45
46
47
48
49
50
51
52
53
54
55
56
57
58
59
60
61
62
63
64
65
66
67
68
69
70
71
72
73
74
75
76
77
78
79
80
81
82
83
84
85
86
87
88
89
90
91
92
93
94
95
96
97
98
99
100
101
102
103
104
105
106
107
108
109
110
111
112
113
114
115
116
117
118
119
120
121
122
123
124
125
126
127
128
129
130
131
132
133
134
135
136
137
138
139
140
141
142
143
144
145
146
147
148
149
150
151
152
153
154
155
156
157
158
159
160
161
162
163
164
165
166
167
168
169
170
171
172
173
174
175
176
177
178
179
180
181
182
183
184
185
186
187
188
189
190
191
192
193
194
195
196
197
198
199
200
201
202
203
204
205
206
207
208
209
210
211
212
213
214
215
216
217
218
219
220
221
222
223
224
225
226
227
228
229
230
231
232
233
234
235
236

