%nproc=8
%mem=1000MB
# rb3lyp/6-311+g** NMR geom=connectivity

Title

0 1
C    -4.0500558   -0.5771862    0.8136712
H    -5.0263804   -1.0082727    1.0024760
C    -3.9381552    0.6617804    0.2400876
H    -4.8252424    1.2338890   -0.0111295
C    -2.6768410    1.2433246    0.0057578
C    -1.4974121    0.5051527    0.2848253
C    -1.6508332   -0.7338728    0.9404026
H    -0.7713646   -1.2730967    1.2633753
C    -2.8898548   -1.2624035    1.1994307
H    -2.9683706   -2.2124563    1.7152676
C    -2.5773185    2.5963696   -0.4192930
H    -3.4870728    3.1412239   -0.6474055
C    -1.3741895    3.2147896   -0.4364030
H    -1.2997315    4.2742019   -0.6578144
C    -0.1719488    2.4994090   -0.1734588
C    -0.2043917    1.1018437    0.0192689
C     1.0513491    3.2042560   -0.0676222
H     1.0427344    4.2819499   -0.1896997
C     2.1942091    2.5487446    0.2579577
H     3.1168527    3.0912848    0.4334727
C     2.2216473    1.1336562    0.2934990
C     1.0486931    0.3945528    0.0302412
C     3.4483363    0.4614633    0.5573939
H     4.3095794    1.0606054    0.8334846
C     3.5427346   -0.8855926    0.4749463
H     4.4731467   -1.3939704    0.7038822
C     2.4490052   -1.6474447   -0.0196319
C     1.2150704   -1.0057258   -0.3013573
C     0.2531113   -1.7434440   -1.0216591
H    -0.6541356   -1.2535051   -1.3462847
C     0.4494193   -3.0628597   -1.3413779
H    -0.3083162   -3.5944309   -1.9054060
C     1.6251726   -3.7207967   -0.9552541
H     1.7670048   -4.7687404   -1.1927019
C     2.6109872   -3.0144177   -0.3183050
H     3.5525612   -3.4902813   -0.0646367
Bq         2.3347904014    -2.4790949650     0.8917871738
Bq         2.5915790447    -2.3368183748    -0.0641505672
Bq         2.4631847231    -2.4079566699     0.4138183033
Bq         2.4338148082    -2.3232016349     0.5231526170
Bq         2.4851725368    -2.2947463168     0.3319650688
Bq         2.4081359439    -2.3374292939     0.6187463911
Bq         2.5108514012    -2.2805186578     0.2363712947
Bq         2.3824570796    -2.3516569529     0.7143401652
Bq         2.5365302655    -2.2662909988     0.1407775206
Bq         2.3567782152    -2.3658846120     0.8099339393
Bq         2.5622091298    -2.2520633397     0.0451837465
Bq         2.3310993509    -2.3801122710     0.9055277133
Bq         2.5878879941    -2.2378356807    -0.0504100276
Bq         2.4594936725    -2.3089739759     0.4275588429
Bq         2.4301237577    -2.2242189408     0.5368931565
Bq         2.4814814863    -2.1957636228     0.3457056083
Bq         2.4044448933    -2.2384465999     0.6324869306
Bq         2.5071603506    -2.1815359638     0.2501118342
Bq         2.3787660290    -2.2526742589     0.7280807047
Bq         2.5328392150    -2.1673083047     0.1545180601
Bq         2.3530871647    -2.2669019179     0.8236744788
Bq         2.5585180793    -2.1530806457     0.0589242861
Bq         2.3274083004    -2.2811295770     0.9192682529
Bq         2.5841969436    -2.1388529867    -0.0366694880
Bq         2.4558026220    -2.2099912818     0.4412993824
Bq         2.4264327071    -2.1252362468     0.5506336961
Bq         2.4777904358    -2.0967809288     0.3594461479
Bq         2.4007538428    -2.1394639058     0.6462274702
Bq         2.5034693001    -2.0825532697     0.2638523738
Bq         2.3750749785    -2.1536915649     0.7418212443
Bq         2.5291481644    -2.0683256107     0.1682585997
Bq         2.3493961142    -2.1679192239     0.8374150184
Bq         2.5548270287    -2.0540979517     0.0726648256
Bq         2.3237172498    -2.1821468829     0.9330087925
Bq         2.5805058931    -2.0398702926    -0.0229289485
Bq         2.4521115715    -2.1110085878     0.4550399220
Bq         2.4227416566    -2.0262535528     0.5643742356
Bq         2.4740993852    -1.9977982347     0.3731866875
Bq         2.3970627923    -2.0404812118     0.6599680097
Bq         2.4997782496    -1.9835705757     0.2775929134
Bq         2.3713839279    -2.0547088708     0.7555617838
Bq         2.5254571139    -1.9693429167     0.1819991393
Bq         2.3457050636    -2.0689365299     0.8511555579
Bq         2.5511359782    -1.9551152576     0.0864053652
Bq         2.3200261993    -2.0831641889     0.9467493320
Bq         2.5768148425    -1.9408875986    -0.0091884089
Bq         2.4484205209    -2.0120258937     0.4687804616
Bq         2.4190506061    -1.9272708587     0.5781147752
Bq         2.4704083347    -1.8988155407     0.3869272270
Bq         2.3933717417    -1.9414985178     0.6737085493
Bq         2.4960871990    -1.8845878817     0.2913334529
Bq         2.3676928774    -1.9557261768     0.7693023234
Bq         2.5217660633    -1.8703602226     0.1957396788
Bq         2.3420140131    -1.9699538358     0.8648960975
Bq         2.5474449277    -1.8561325636     0.1001459047
Bq         2.3163351488    -1.9841814949     0.9604898716
Bq         2.5731237920    -1.8419049046     0.0045521306
Bq         2.4447294704    -1.9130431997     0.4825210011
Bq         2.4153595555    -1.8282881647     0.5918553148
Bq         2.4667172842    -1.7998328466     0.4006677666
Bq         2.3896806912    -1.8425158237     0.6874490889
Bq         2.4923961485    -1.7856051876     0.3050739925
Bq         2.3640018269    -1.8567434828     0.7830428630
Bq         2.5180750128    -1.7713775286     0.2094802184
Bq         2.3383229626    -1.8709711418     0.8786366370
Bq         2.5437538771    -1.7571498696     0.1138864443
Bq         2.3126440982    -1.8851988008     0.9742304111
Bq         2.5694327415    -1.7429222105     0.0182926702
Bq         2.4410384198    -1.8140605057     0.4962615407
Bq         2.4116685050    -1.7293054707     0.6055958543
Bq         2.4630262336    -1.7008501526     0.4144083061
Bq         2.3859896407    -1.7435331297     0.7011896284
Bq         2.4887050980    -1.6866224936     0.3188145320
Bq         2.3603107763    -1.7577607887     0.7967834025
Bq         2.5143839623    -1.6723948346     0.2232207579
Bq         2.3346319120    -1.7719884478     0.8923771766
Bq         2.5400628266    -1.6581671755     0.1276269838
Bq         2.3089530477    -1.7862161068     0.9879709507
Bq         2.5657416909    -1.6439395165     0.0320332098
Bq         2.4373473693    -1.7150778116     0.5100020802
Bq         2.4079774545    -1.6303227766     0.6193363939
Bq         2.4593351831    -1.6018674586     0.4281488457
Bq         2.3822985901    -1.6445504357     0.7149301680
Bq         2.4850140474    -1.5876397995     0.3325550716
Bq         2.3566197258    -1.6587780947     0.8105239421
Bq         2.5106929117    -1.5734121405     0.2369612975
Bq         2.3309408615    -1.6730057537     0.9061177162
Bq         2.5363717761    -1.5591844815     0.1413675234
Bq         2.3052619972    -1.6872334127     1.0017114903
Bq         2.5620506404    -1.5449568225     0.0457737493
Bq         2.4336563188    -1.6160951176     0.5237426198
Bq         2.4042864039    -1.5313400826     0.6330769334
Bq         2.4556441326    -1.5028847645     0.4418893853
Bq         2.3786075396    -1.5455677416     0.7286707075
Bq         2.4813229969    -1.4886571055     0.3462956112
Bq         2.3529286753    -1.5597954007     0.8242644816
Bq         2.5070018612    -1.4744294465     0.2507018371
Bq         2.3272498109    -1.5740230597     0.9198582557
Bq         2.5326807255    -1.4602017875     0.1551080630
Bq         2.3015709466    -1.5882507187     1.0154520298
Bq         2.5583595899    -1.4459741284     0.0595142889
Bq         2.4299652682    -1.5171124236     0.5374831593
Bq         2.4005953534    -1.4323573886     0.6468174730
Bq         2.4519530820    -1.4039020705     0.4556299248
Bq         2.3749164891    -1.4465850476     0.7424112471
Bq         2.4776319463    -1.3896744115     0.3600361507
Bq         2.3492376247    -1.4608127066     0.8380050212
Bq         2.5033108107    -1.3754467524     0.2644423766
Bq         2.3235587604    -1.4750403656     0.9335987953
Bq         2.5289896750    -1.3612190934     0.1688486025
Bq         2.2978798961    -1.4892680247     1.0291925694
Bq         2.5546685393    -1.3469914344     0.0732548284
Bq         2.4262742177    -1.4181297295     0.5512236989
Bq         2.3969043028    -1.3333746945     0.6605580126
Bq         2.4482620315    -1.3049193765     0.4693704644
Bq         2.3712254385    -1.3476023536     0.7561517867
Bq         2.4739408958    -1.2906917174     0.3737766903
Bq         2.3455465742    -1.3618300126     0.8517455607
Bq         2.4996197601    -1.2764640584     0.2781829162
Bq         2.3198677099    -1.3760576716     0.9473393348
Bq         2.5252986245    -1.2622363994     0.1825891421
Bq         2.2941888456    -1.3902853306     1.0429331089
Bq         2.5509774888    -1.2480087404     0.0869953680
Bq         2.4225831672    -1.3191470355     0.5649642385
Bq         2.3932132523    -1.2343920005     0.6742985521
Bq         2.4445709810    -1.2059366824     0.4831110039
Bq         2.3675343880    -1.2486196595     0.7698923262
Bq         2.4702498453    -1.1917090234     0.3875172298
Bq         2.3418555237    -1.2628473185     0.8654861003
Bq         2.4959287096    -1.1774813644     0.2919234557
Bq         2.3161766593    -1.2770749776     0.9610798744
Bq         2.5216075739    -1.1632537054     0.1963296816
Bq         2.2904977950    -1.2913026366     1.0566736485
Bq         2.5472864382    -1.1490260463     0.1007359075
Bq         2.4188921166    -1.2201643415     0.5787047780
Bq         2.3895222018    -1.1354093065     0.6880390917
Bq         2.4408799304    -1.1069539884     0.4968515435
Bq         2.3638433375    -1.1496369655     0.7836328658
Bq         2.4665587947    -1.0927263294     0.4012577694
Bq         2.3381644731    -1.1638646245     0.8792266399
Bq         2.4922376591    -1.0784986703     0.3056639953
Bq         2.3124856088    -1.1780922835     0.9748204140
Bq         2.5179165234    -1.0642710113     0.2100702212
Bq         2.2868067445    -1.1923199426     1.0704141881
Bq         2.5435953877    -1.0500433523     0.1144764471
Bq         2.4152010661    -1.1211816474     0.5924453176
Bq         2.3858311512    -1.0364266124     0.7017796312
Bq         2.4371888799    -1.0079712944     0.5105920830
Bq         2.3601522869    -1.0506542714     0.7973734053
Bq         2.4628677442    -0.9937436353     0.4149983090
Bq         2.3344734226    -1.0648819305     0.8929671794
Bq         2.4885466085    -0.9795159763     0.3194045349
Bq         2.3087945583    -1.0791095895     0.9885609535
Bq         2.5142254729    -0.9652883173     0.2238107608
Bq         2.2831156939    -1.0933372485     1.0841547276
Bq         2.5399043372    -0.9510606583     0.1282169867
Bq         2.4115100156    -1.0221989534     0.6061858571
Bq         2.3821401007    -0.9374439184     0.7155201708
Bq         2.4334978293    -0.9089886003     0.5243326226
Bq         2.3564612364    -0.9516715774     0.8111139449
Bq         2.4591766937    -0.8947609413     0.4287388485
Bq         2.3307823721    -0.9658992364     0.9067077190
Bq         2.4848555580    -0.8805332823     0.3331450744
Bq         2.3051035077    -0.9801268955     1.0023014931
Bq         2.5105344223    -0.8663056232     0.2375513003
Bq         2.2794246434    -0.9943545545     1.0978952672
Bq         2.5362132866    -0.8520779642     0.1419575262
Bq         2.4078189650    -0.9232162594     0.6199263967
Bq         2.3784490502    -0.8384612243     0.7292607104
Bq         2.4298067788    -0.8100059063     0.5380731622
Bq         2.3527701858    -0.8526888834     0.8248544844
Bq         2.4554856431    -0.7957782473     0.4424793881
Bq         2.3270913215    -0.8669165424     0.9204482585
Bq         2.4811645075    -0.7815505882     0.3468856140
Bq         2.3014124572    -0.8811442014     1.0160420326
Bq         2.5068433718    -0.7673229292     0.2512918399
Bq         2.2757335929    -0.8953718605     1.1116358067
Bq         2.5325222361    -0.7530952702     0.1556980658
Bq         2.4041279145    -0.8242335653     0.6336669363
Bq         2.3747579996    -0.7394785303     0.7430012499
Bq         2.4261157283    -0.7110232123     0.5518137017
Bq         2.3490791353    -0.7537061893     0.8385950240
Bq         2.4517945926    -0.6967955532     0.4562199276
Bq         2.3234002710    -0.7679338484     0.9341887981
Bq         2.4774734569    -0.6825678942     0.3606261535
Bq         2.2977214067    -0.7821615074     1.0297825722
Bq         2.5031523212    -0.6683402352     0.2650323794
Bq         2.2720425423    -0.7963891664     1.1253763463
Bq         2.5288311856    -0.6541125761     0.1694386053
Bq         2.4004368640    -0.7252508713     0.6474074758
Bq         2.3710669491    -0.6404958363     0.7567417895
Bq         2.4224246777    -0.6120405182     0.5655542413
Bq         2.3453880848    -0.6547234953     0.8523355636
Bq         2.4481035421    -0.5978128592     0.4699604672
Bq         2.3197092205    -0.6689511543     0.9479293377
Bq         2.4737824064    -0.5835852002     0.3743666931
Bq         2.2940303561    -0.6831788134     1.0435231118
Bq         2.4994612707    -0.5693575411     0.2787729190
Bq         2.2683514918    -0.6974064724     1.1391168858
Bq         2.5251401350    -0.5551298821     0.1831791449

1
2
3
4
5
6
7
8
9
10
11
12
13
14
15
16
17
18
19
20
21
22
23
24
25
26
27
28
29
30
31
32
33
34
35
36
37
38
39
40
41
42
43
44
45
46
47
48
49
50
51
52
53
54
55
56
57
58
59
60
61
62
63
64
65
66
67
68
69
70
71
72
73
74
75
76
77
78
79
80
81
82
83
84
85
86
87
88
89
90
91
92
93
94
95
96
97
98
99
100
101
102
103
104
105
106
107
108
109
110
111
112
113
114
115
116
117
118
119
120
121
122
123
124
125
126
127
128
129
130
131
132
133
134
135
136
137
138
139
140
141
142
143
144
145
146
147
148
149
150
151
152
153
154
155
156
157
158
159
160
161
162
163
164
165
166
167
168
169
170
171
172
173
174
175
176
177
178
179
180
181
182
183
184
185
186
187
188
189
190
191
192
193
194
195
196
197
198
199
200
201
202
203
204
205
206
207
208
209
210
211
212
213
214
215
216
217
218
219
220
221
222
223
224
225
226
227
228
229
230
231
232
233
234
235
236

