%nproc=8
%mem=1000MB
# rb3lyp/6-311+g** NMR geom=connectivity

Title

0 1
C    -4.0500558   -0.5771862    0.8136712
H    -5.0263804   -1.0082727    1.0024760
C    -3.9381552    0.6617804    0.2400876
H    -4.8252424    1.2338890   -0.0111295
C    -2.6768410    1.2433246    0.0057578
C    -1.4974121    0.5051527    0.2848253
C    -1.6508332   -0.7338728    0.9404026
H    -0.7713646   -1.2730967    1.2633753
C    -2.8898548   -1.2624035    1.1994307
H    -2.9683706   -2.2124563    1.7152676
C    -2.5773185    2.5963696   -0.4192930
H    -3.4870728    3.1412239   -0.6474055
C    -1.3741895    3.2147896   -0.4364030
H    -1.2997315    4.2742019   -0.6578144
C    -0.1719488    2.4994090   -0.1734588
C    -0.2043917    1.1018437    0.0192689
C     1.0513491    3.2042560   -0.0676222
H     1.0427344    4.2819499   -0.1896997
C     2.1942091    2.5487446    0.2579577
H     3.1168527    3.0912848    0.4334727
C     2.2216473    1.1336562    0.2934990
C     1.0486931    0.3945528    0.0302412
C     3.4483363    0.4614633    0.5573939
H     4.3095794    1.0606054    0.8334846
C     3.5427346   -0.8855926    0.4749463
H     4.4731467   -1.3939704    0.7038822
C     2.4490052   -1.6474447   -0.0196319
C     1.2150704   -1.0057258   -0.3013573
C     0.2531113   -1.7434440   -1.0216591
H    -0.6541356   -1.2535051   -1.3462847
C     0.4494193   -3.0628597   -1.3413779
H    -0.3083162   -3.5944309   -1.9054060
C     1.6251726   -3.7207967   -0.9552541
H     1.7670048   -4.7687404   -1.1927019
C     2.6109872   -3.0144177   -0.3183050
H     3.5525612   -3.4902813   -0.0646367
Bq        -1.2944766284     0.3597768518     0.7034704733
Bq        -1.1786690040     0.3204689711    -0.0871264434
Bq        -1.3089525814     0.3646903368     0.8022950879
Bq        -1.1641930510     0.3155554860    -0.1859510579
Bq        -1.2365728162     0.3401229114     0.3081720150
Bq        -1.2503366353     0.4449156119     0.4021350248
Bq        -1.2213847292     0.4350886417     0.2044857956
Bq        -1.2648125883     0.4498290970     0.5009596394
Bq        -1.2069087762     0.4301751566     0.1056611810
Bq        -1.2792885414     0.4547425820     0.5997842540
Bq        -1.1924328231     0.4252616716     0.0068365665
Bq        -1.2937644944     0.4596560671     0.6986088686
Bq        -1.1779568701     0.4203481865    -0.0919880481
Bq        -1.3082404475     0.4645695522     0.7974334831
Bq        -1.1634809170     0.4154347014    -0.1908126627
Bq        -1.2358606822     0.4400021268     0.3033104102
Bq        -1.2496245013     0.5447948273     0.3972734200
Bq        -1.2206725953     0.5349678571     0.1996241909
Bq        -1.2641004544     0.5497083123     0.4960980346
Bq        -1.2061966422     0.5300543720     0.1007995763
Bq        -1.2785764074     0.5546217974     0.5949226492
Bq        -1.1917206892     0.5251408869     0.0019749617
Bq        -1.2930523605     0.5595352825     0.6937472638
Bq        -1.1772447361     0.5202274018    -0.0968496529
Bq        -1.3075283135     0.5644487676     0.7925718784
Bq        -1.1627687831     0.5153139168    -0.1956742675
Bq        -1.2351485483     0.5398813422     0.2984488054
Bq        -1.2489123674     0.6446740426     0.3924118153
Bq        -1.2199604613     0.6348470725     0.1947625861
Bq        -1.2633883205     0.6495875277     0.4912364298
Bq        -1.2054845083     0.6299335874     0.0959379715
Bq        -1.2778642735     0.6545010128     0.5900610444
Bq        -1.1910085552     0.6250201023    -0.0028866431
Bq        -1.2923402265     0.6594144979     0.6888856590
Bq        -1.1765326022     0.6201066172    -0.1017112577
Bq        -1.3068161796     0.6643279830     0.7877102736
Bq        -1.1620566491     0.6151931321    -0.2005358722
Bq        -1.2344364144     0.6397605576     0.2935872007
Bq        -1.2482002335     0.7445532580     0.3875502105
Bq        -1.2192483274     0.7347262878     0.1899009813
Bq        -1.2626761865     0.7494667431     0.4863748251
Bq        -1.2047723743     0.7298128028     0.0910763667
Bq        -1.2771521396     0.7543802282     0.5851994397
Bq        -1.1902964213     0.7248993177    -0.0077482478
Bq        -1.2916280926     0.7592937133     0.6840240543
Bq        -1.1758204682     0.7199858326    -0.1065728624
Bq        -1.3061040456     0.7642071983     0.7828486688
Bq        -1.1613445152     0.7150723475    -0.2053974770
Bq        -1.2337242804     0.7396397729     0.2887255959
Bq        -1.2474880995     0.8444324734     0.3826886057
Bq        -1.2185361934     0.8346055032     0.1850393766
Bq        -1.2619640526     0.8493459585     0.4815132203
Bq        -1.2040602404     0.8296920181     0.0862147620
Bq        -1.2764400056     0.8542594436     0.5803378349
Bq        -1.1895842873     0.8247785331    -0.0126098526
Bq        -1.2909159587     0.8591729286     0.6791624495
Bq        -1.1751083343     0.8198650480    -0.1114344672
Bq        -1.3053919117     0.8640864137     0.7779870641
Bq        -1.1606323813     0.8149515629    -0.2102590818
Bq        -1.2330121465     0.8395189883     0.2838639911
Bq        -1.2467759656     0.9443116888     0.3778270010
Bq        -1.2178240595     0.9344847186     0.1801777718
Bq        -1.2612519186     0.9492251739     0.4766516156
Bq        -1.2033481064     0.9295712335     0.0813531572
Bq        -1.2757278717     0.9541386589     0.5754762301
Bq        -1.1888721534     0.9246577484    -0.0174714574
Bq        -1.2902038247     0.9590521440     0.6743008447
Bq        -1.1743962004     0.9197442634    -0.1162960720
Bq        -1.3046797778     0.9639656291     0.7731254593
Bq        -1.1599202473     0.9148307783    -0.2151206865
Bq        -1.2323000125     0.9393982037     0.2790023864
Bq        -1.2460638316     1.0441909041     0.3729653962
Bq        -1.2171119256     1.0343639340     0.1753161670
Bq        -1.2605397847     1.0491043892     0.4717900108
Bq        -1.2026359725     1.0294504489     0.0764915524
Bq        -1.2750157377     1.0540178743     0.5706146254
Bq        -1.1881600195     1.0245369638    -0.0223330621
Bq        -1.2894916908     1.0589313594     0.6694392400
Bq        -1.1736840664     1.0196234787    -0.1211576767
Bq        -1.3039676438     1.0638448445     0.7682638545
Bq        -1.1592081134     1.0147099936    -0.2199822913
Bq        -1.2315878786     1.0392774191     0.2741407816
Bq        -1.2453516977     1.1440701195     0.3681037914
Bq        -1.2163997916     1.1342431494     0.1704545623
Bq        -1.2598276507     1.1489836046     0.4669284060
Bq        -1.2019238386     1.1293296643     0.0716299477
Bq        -1.2743036038     1.1538970897     0.5657530206
Bq        -1.1874478855     1.1244161792    -0.0271946669
Bq        -1.2887795568     1.1588105748     0.6645776352
Bq        -1.1729719325     1.1195026941    -0.1260192815
Bq        -1.3032555099     1.1637240599     0.7634022498
Bq        -1.1584959794     1.1145892090    -0.2248438961
Bq        -1.2308757447     1.1391566344     0.2692791768
Bq        -1.2446395638     1.2439493349     0.3632421867
Bq        -1.2156876577     1.2341223647     0.1655929575
Bq        -1.2591155168     1.2488628200     0.4620668013
Bq        -1.2012117046     1.2292088797     0.0667683429
Bq        -1.2735914698     1.2537763051     0.5608914158
Bq        -1.1867357516     1.2242953946    -0.0320562717
Bq        -1.2880674229     1.2586897901     0.6597160304
Bq        -1.1722597985     1.2193819095    -0.1308808863
Bq        -1.3025433759     1.2636032752     0.7585406450
Bq        -1.1577838455     1.2144684244    -0.2297055008
Bq        -1.2301636107     1.2390358498     0.2644175721
Bq        -1.2439274298     1.3438285503     0.3583805819
Bq        -1.2149755237     1.3340015801     0.1607313527
Bq        -1.2584033829     1.3487420354     0.4572051965
Bq        -1.2004995707     1.3290880950     0.0619067381
Bq        -1.2728793359     1.3536555204     0.5560298111
Bq        -1.1860236176     1.3241746099    -0.0369178764
Bq        -1.2873552889     1.3585690055     0.6548544257
Bq        -1.1715476646     1.3192611249    -0.1357424910
Bq        -1.3018312420     1.3634824906     0.7536790402
Bq        -1.1570717115     1.3143476398    -0.2345671056
Bq        -1.2294514768     1.3389150652     0.2595559673
Bq        -1.2432152959     1.4437077657     0.3535189771
Bq        -1.2142633898     1.4338807955     0.1558697480
Bq        -1.2576912489     1.4486212507     0.4523435917
Bq        -1.1997874367     1.4289673104     0.0570451334
Bq        -1.2721672020     1.4535347358     0.5511682063
Bq        -1.1853114837     1.4240538253    -0.0417794812
Bq        -1.2866431550     1.4584482209     0.6499928209
Bq        -1.1708355307     1.4191403402    -0.1406040958
Bq        -1.3011191081     1.4633617060     0.7488174355
Bq        -1.1563595776     1.4142268552    -0.2394287104
Bq        -1.2287393428     1.4387942806     0.2546943625
Bq        -1.2425031619     1.5435869810     0.3486573724
Bq        -1.2135512558     1.5337600109     0.1510081432
Bq        -1.2569791150     1.5485004661     0.4474819870
Bq        -1.1990753028     1.5288465258     0.0521835286
Bq        -1.2714550680     1.5534139512     0.5463066015
Bq        -1.1845993498     1.5239330407    -0.0466410860
Bq        -1.2859310211     1.5583274363     0.6451312161
Bq        -1.1701233967     1.5190195556    -0.1454657006
Bq        -1.3004069741     1.5632409214     0.7439558307
Bq        -1.1556474437     1.5141060705    -0.2442903151
Bq        -1.2280272089     1.5386734959     0.2498327578
Bq        -1.2417910280     1.6434661964     0.3437957676
Bq        -1.2128391219     1.6336392262     0.1461465384
Bq        -1.2562669810     1.6483796815     0.4426203822
Bq        -1.1983631689     1.6287257412     0.0473219238
Bq        -1.2707429341     1.6532931666     0.5414449968
Bq        -1.1838872158     1.6238122561    -0.0515026907
Bq        -1.2852188871     1.6582066517     0.6402696114
Bq        -1.1694112628     1.6188987710    -0.1503273053
Bq        -1.2996948402     1.6631201367     0.7390942259
Bq        -1.1549353097     1.6139852859    -0.2491519199
Bq        -1.2273150749     1.6385527113     0.2449711530
Bq        -1.2410788940     1.7433454118     0.3389341628
Bq        -1.2121269880     1.7335184416     0.1412849337
Bq        -1.2555548471     1.7482588969     0.4377587774
Bq        -1.1976510349     1.7286049565     0.0424603191
Bq        -1.2700308001     1.7531723819     0.5365833920
Bq        -1.1831750819     1.7236914715    -0.0563642955
Bq        -1.2845067532     1.7580858670     0.6354080066
Bq        -1.1686991288     1.7187779864    -0.1551889101
Bq        -1.2989827062     1.7629993521     0.7342326212
Bq        -1.1542231758     1.7138645013    -0.2540135247
Bq        -1.2266029410     1.7384319267     0.2401095482
Bq        -1.2403667601     1.8432246272     0.3340725581
Bq        -1.2114148540     1.8333976570     0.1364233289
Bq        -1.2548427132     1.8481381122     0.4328971727
Bq        -1.1969389010     1.8284841719     0.0375987143
Bq        -1.2693186662     1.8530515973     0.5317217872
Bq        -1.1824629479     1.8235706868    -0.0612259003
Bq        -1.2837946192     1.8579650824     0.6305464018
Bq        -1.1679869949     1.8186572017    -0.1600505149
Bq        -1.2982705723     1.8628785675     0.7293710164
Bq        -1.1535110418     1.8137437167    -0.2588751294
Bq        -1.2258908071     1.8383111421     0.2352479435
Bq        -1.2396546262     1.9431038425     0.3292109533
Bq        -1.2107027201     1.9332768724     0.1315617241
Bq        -1.2541305792     1.9480173276     0.4280355679
Bq        -1.1962267670     1.9283633873     0.0327371095
Bq        -1.2686065323     1.9529308127     0.5268601825
Bq        -1.1817508140     1.9234499022    -0.0660875050
Bq        -1.2830824853     1.9578442978     0.6256847971
Bq        -1.1672748609     1.9185364171    -0.1649121196
Bq        -1.2975584383     1.9627577829     0.7245094116
Bq        -1.1527989079     1.9136229320    -0.2637367342
Bq        -1.2251786731     1.9381903575     0.2303863387
Bq        -1.2389424922     2.0429830579     0.3243493485
Bq        -1.2099905861     2.0331560878     0.1267001194
Bq        -1.2534184453     2.0478965430     0.4231739631
Bq        -1.1955146331     2.0282426027     0.0278755048
Bq        -1.2678943983     2.0528100281     0.5219985777
Bq        -1.1810386800     2.0233291176    -0.0709491098
Bq        -1.2823703514     2.0577235132     0.6208231923
Bq        -1.1665627270     2.0184156325    -0.1697737244
Bq        -1.2968463044     2.0626369982     0.7196478069
Bq        -1.1520867740     2.0135021474    -0.2685983390
Bq        -1.2244665392     2.0380695728     0.2255247339
Bq        -1.2382303583     2.1428622733     0.3194877438
Bq        -1.2092784522     2.1330353031     0.1218385146
Bq        -1.2527063113     2.1477757584     0.4183123584
Bq        -1.1948024991     2.1281218180     0.0230139000
Bq        -1.2671822644     2.1526892435     0.5171369729
Bq        -1.1803265461     2.1232083330    -0.0758107146
Bq        -1.2816582174     2.1576027285     0.6159615875
Bq        -1.1658505931     2.1182948479    -0.1746353292

1
2
3
4
5
6
7
8
9
10
11
12
13
14
15
16
17
18
19
20
21
22
23
24
25
26
27
28
29
30
31
32
33
34
35
36
37
38
39
40
41
42
43
44
45
46
47
48
49
50
51
52
53
54
55
56
57
58
59
60
61
62
63
64
65
66
67
68
69
70
71
72
73
74
75
76
77
78
79
80
81
82
83
84
85
86
87
88
89
90
91
92
93
94
95
96
97
98
99
100
101
102
103
104
105
106
107
108
109
110
111
112
113
114
115
116
117
118
119
120
121
122
123
124
125
126
127
128
129
130
131
132
133
134
135
136
137
138
139
140
141
142
143
144
145
146
147
148
149
150
151
152
153
154
155
156
157
158
159
160
161
162
163
164
165
166
167
168
169
170
171
172
173
174
175
176
177
178
179
180
181
182
183
184
185
186
187
188
189
190
191
192
193
194
195
196
197
198
199
200
201
202
203
204
205
206
207
208
209
210
211
212
213
214
215
216
217
218
219
220
221
222
223
224
225
226
227
228
229
230
231
232
233
234
235
236

