%nproc=8
%mem=1000MB
# rb3lyp/6-311+g** NMR geom=connectivity

Title

0 1
C    -4.0500558   -0.5771862    0.8136712
H    -5.0263804   -1.0082727    1.0024760
C    -3.9381552    0.6617804    0.2400876
H    -4.8252424    1.2338890   -0.0111295
C    -2.6768410    1.2433246    0.0057578
C    -1.4974121    0.5051527    0.2848253
C    -1.6508332   -0.7338728    0.9404026
H    -0.7713646   -1.2730967    1.2633753
C    -2.8898548   -1.2624035    1.1994307
H    -2.9683706   -2.2124563    1.7152676
C    -2.5773185    2.5963696   -0.4192930
H    -3.4870728    3.1412239   -0.6474055
C    -1.3741895    3.2147896   -0.4364030
H    -1.2997315    4.2742019   -0.6578144
C    -0.1719488    2.4994090   -0.1734588
C    -0.2043917    1.1018437    0.0192689
C     1.0513491    3.2042560   -0.0676222
H     1.0427344    4.2819499   -0.1896997
C     2.1942091    2.5487446    0.2579577
H     3.1168527    3.0912848    0.4334727
C     2.2216473    1.1336562    0.2934990
C     1.0486931    0.3945528    0.0302412
C     3.4483363    0.4614633    0.5573939
H     4.3095794    1.0606054    0.8334846
C     3.5427346   -0.8855926    0.4749463
H     4.4731467   -1.3939704    0.7038822
C     2.4490052   -1.6474447   -0.0196319
C     1.2150704   -1.0057258   -0.3013573
C     0.2531113   -1.7434440   -1.0216591
H    -0.6541356   -1.2535051   -1.3462847
C     0.4494193   -3.0628597   -1.3413779
H    -0.3083162   -3.5944309   -1.9054060
C     1.6251726   -3.7207967   -0.9552541
H     1.7670048   -4.7687404   -1.1927019
C     2.6109872   -3.0144177   -0.3183050
H     3.5525612   -3.4902813   -0.0646367
Bq        -1.1773403839    -0.8436329534    -0.4724091595
Bq        -0.9381698012    -0.6839390467    -0.9989975078
Bq        -1.2172021477    -0.8702486045    -0.3846444348
Bq        -0.8983080374    -0.6573233956    -1.0867622325
Bq        -1.2570639115    -0.8968642556    -0.2968797101
Bq        -0.8584462736    -0.6307077445    -1.1745269572
Bq        -1.0577550925    -0.7637860000    -0.7357033336
Bq        -1.1086233297    -0.6940086684    -0.6237053585
Bq        -1.0288998021    -0.6407773662    -0.7992348079
Bq        -1.1484850935    -0.7206243196    -0.5359406338
Bq        -0.9890380383    -0.6141617151    -0.8869995326
Bq        -1.1883468572    -0.7472399707    -0.4481759090
Bq        -0.9491762745    -0.5875460640    -0.9747642573
Bq        -1.2282086210    -0.7738556218    -0.3604111843
Bq        -0.9093145107    -0.5609304129    -1.0625289820
Bq        -1.2680703848    -0.8004712729    -0.2726464596
Bq        -0.8694527469    -0.5343147618    -1.1502937068
Bq        -1.0687615659    -0.6673930173    -0.7114700832
Bq        -1.1196298030    -0.5976156857    -0.5994721080
Bq        -1.0399062755    -0.5443843835    -0.7750015574
Bq        -1.1594915668    -0.6242313368    -0.5117073833
Bq        -1.0000445117    -0.5177687324    -0.8627662822
Bq        -1.1993533306    -0.6508469879    -0.4239426586
Bq        -0.9601827479    -0.4911530813    -0.9505310069
Bq        -1.2392150944    -0.6774626391    -0.3361779339
Bq        -0.9203209841    -0.4645374302    -1.0382957316
Bq        -1.2790768582    -0.7040782902    -0.2484132092
Bq        -0.8804592203    -0.4379217791    -1.1260604563
Bq        -1.0797680393    -0.5710000346    -0.6872368327
Bq        -1.1306362764    -0.5012227030    -0.5752388576
Bq        -1.0509127488    -0.4479914008    -0.7507683070
Bq        -1.1704980402    -0.5278383541    -0.4874741328
Bq        -1.0110509851    -0.4213757497    -0.8385330317
Bq        -1.2103598040    -0.5544540052    -0.3997094081
Bq        -0.9711892213    -0.3947600986    -0.9262977564
Bq        -1.2502215678    -0.5810696563    -0.3119446834
Bq        -0.9313274575    -0.3681444475    -1.0140624811
Bq        -1.2900833316    -0.6076853074    -0.2241799587
Bq        -0.8914656937    -0.3415287964    -1.1018272058
Bq        -1.0907745126    -0.4746070519    -0.6630035823
Bq        -1.1416427498    -0.4048297203    -0.5510056071
Bq        -1.0619192222    -0.3515984181    -0.7265350565
Bq        -1.1815045136    -0.4314453714    -0.4632408824
Bq        -1.0220574584    -0.3249827670    -0.8142997812
Bq        -1.2213662774    -0.4580610225    -0.3754761577
Bq        -0.9821956946    -0.2983671159    -0.9020645060
Bq        -1.2612280412    -0.4846766736    -0.2877114330
Bq        -0.9423339309    -0.2717514648    -0.9898292307
Bq        -1.3010898049    -0.5112923247    -0.1999467082
Bq        -0.9024721671    -0.2451358137    -1.0775939554
Bq        -1.1017809860    -0.3782140692    -0.6387703318
Bq        -1.1526492232    -0.3084367376    -0.5267723566
Bq        -1.0729256956    -0.2552054354    -0.7023018061
Bq        -1.1925109869    -0.3350523887    -0.4390076319
Bq        -1.0330639318    -0.2285897843    -0.7900665308
Bq        -1.2323727507    -0.3616680398    -0.3512429072
Bq        -0.9932021680    -0.2019741332    -0.8778312555
Bq        -1.2722345145    -0.3882836909    -0.2634781825
Bq        -0.9533404042    -0.1753584821    -0.9655959802
Bq        -1.3120962783    -0.4148993420    -0.1757134578
Bq        -0.9134786404    -0.1487428310    -1.0533607049
Bq        -1.1127874594    -0.2818210865    -0.6145370814
Bq        -1.1636556965    -0.2120437549    -0.5025391062
Bq        -1.0839321690    -0.1588124527    -0.6780685556
Bq        -1.2035174603    -0.2386594060    -0.4147743815
Bq        -1.0440704052    -0.1321968016    -0.7658332803
Bq        -1.2433792241    -0.2652750571    -0.3270096568
Bq        -1.0042086414    -0.1055811505    -0.8535980050
Bq        -1.2832409879    -0.2918907082    -0.2392449320
Bq        -0.9643468776    -0.0789654993    -0.9413627297
Bq        -1.3231027517    -0.3185063593    -0.1514802073
Bq        -0.9244851138    -0.0523498482    -1.0291274545
Bq        -1.1237939327    -0.1854281038    -0.5903038309
Bq        -1.1746621699    -0.1156507722    -0.4783058557
Bq        -1.0949386423    -0.0624194700    -0.6538353052
Bq        -1.2145239337    -0.1422664233    -0.3905411310
Bq        -1.0550768785    -0.0358038189    -0.7416000299
Bq        -1.2543856975    -0.1688820744    -0.3027764063
Bq        -1.0152151148    -0.0091881677    -0.8293647546
Bq        -1.2942474613    -0.1954977255    -0.2150116816
Bq        -0.9753533510     0.0174274834    -0.9171294793
Bq        -1.3341092251    -0.2221133766    -0.1272469569
Bq        -0.9354915872     0.0440431345    -1.0048942040
Bq        -1.1348004061    -0.0890351211    -0.5660705804
Bq        -0.5332896280    -4.9352999078    -1.6486149910
Bq        -0.4535661004    -4.8820686056    -1.8241444404
Bq        -0.5731513918    -4.9619155589    -1.5608502663
Bq        -0.4137043366    -4.8554529545    -1.9119091651
Bq        -0.6130131556    -4.9885312100    -1.4730855416
Bq        -0.3738425728    -4.8288373034    -1.9996738898
Bq        -0.6528749193    -5.0151468611    -1.3853208169
Bq        -0.3339808090    -4.8022216522    -2.0874386146
Bq        -0.6927366831    -5.0417625122    -1.2975560921
Bq        -0.2941190453    -4.7756060011    -2.1752033393
Bq        -0.4934278642    -4.9086842567    -1.7363797157
Bq        -0.5442961014    -4.8389069251    -1.6243817405
Bq        -0.4645725738    -4.7856756229    -1.7999111900
Bq        -0.5841578651    -4.8655225762    -1.5366170158
Bq        -0.4247108100    -4.7590599717    -1.8876759147
Bq        -0.6240196289    -4.8921382273    -1.4488522911
Bq        -0.3848490462    -4.7324443206    -1.9754406394
Bq        -0.6638813927    -4.9187538784    -1.3610875664
Bq        -0.3449872824    -4.7058286695    -2.0632053641
Bq        -0.7037431565    -4.9453695295    -1.2733228417
Bq        -0.3051255186    -4.6792130184    -2.1509700888
Bq        -0.5044343376    -4.8122912740    -1.7121464653
Bq        -0.5553025747    -4.7425139424    -1.6001484901
Bq        -0.4755790472    -4.6892826401    -1.7756779395
Bq        -0.5951643385    -4.7691295935    -1.5123837654
Bq        -0.4357172834    -4.6626669890    -1.8634426642
Bq        -0.6350261023    -4.7957452446    -1.4246190407
Bq        -0.3958555196    -4.6360513379    -1.9512073889
Bq        -0.6748878661    -4.8223608957    -1.3368543159
Bq        -0.3559937558    -4.6094356868    -2.0389721136
Bq        -0.7147496299    -4.8489765468    -1.2490895912
Bq        -0.3161319920    -4.5828200357    -2.1267368384
Bq        -0.5154408109    -4.7158982912    -1.6879132148
Bq        -0.5663090481    -4.6461209596    -1.5759152396
Bq        -0.4865855205    -4.5928896574    -1.7514446890
Bq        -0.6061708119    -4.6727366108    -1.4881505149
Bq        -0.4467237567    -4.5662740063    -1.8392094138
Bq        -0.6460325757    -4.6993522619    -1.4003857902
Bq        -0.4068619930    -4.5396583552    -1.9269741385
Bq        -0.6858943395    -4.7259679130    -1.3126210655
Bq        -0.3670002292    -4.5130427041    -2.0147388632
Bq        -0.7257561033    -4.7525835641    -1.2248563408
Bq        -0.3271384654    -4.4864270530    -2.1025035879
Bq        -0.5264472843    -4.6195053085    -1.6636799643
Bq        -0.5773155215    -4.5497279769    -1.5516819892
Bq        -0.4975919939    -4.4964966747    -1.7272114386
Bq        -0.6171772853    -4.5763436280    -1.4639172645
Bq        -0.4577302301    -4.4698810236    -1.8149761633
Bq        -0.6570390490    -4.6029592791    -1.3761525397
Bq        -0.4178684663    -4.4432653725    -1.9027408880
Bq        -0.6969008128    -4.6295749303    -1.2883878150
Bq        -0.3780067025    -4.4166497214    -1.9905056127
Bq        -0.7367625766    -4.6561905814    -1.2006230903
Bq        -0.3381449387    -4.3900340703    -2.0782703374
Bq        -0.5374537577    -4.5231123258    -1.6394467139
Bq        -0.5883219948    -4.4533349942    -1.5274487387
Bq        -0.5085984673    -4.4001036920    -1.7029781881
Bq        -0.6281837586    -4.4799506453    -1.4396840140
Bq        -0.4687367035    -4.3734880409    -1.7907429128
Bq        -0.6680455224    -4.5065662964    -1.3519192893
Bq        -0.4288749397    -4.3468723898    -1.8785076376
Bq        -0.7079072862    -4.5331819475    -1.2641545646
Bq        -0.3890131759    -4.3202567387    -1.9662723623
Bq        -0.7477690500    -4.5597975986    -1.1763898399
Bq        -0.3491514121    -4.2936410876    -2.0540370870
Bq        -0.5484602311    -4.4267193431    -1.6152134634
Bq        -0.5993284682    -4.3569420115    -1.5032154882
Bq        -0.5196049406    -4.3037107093    -1.6787449377
Bq        -0.6391902320    -4.3835576626    -1.4154507635
Bq        -0.4797431769    -4.2770950582    -1.7665096624
Bq        -0.6790519958    -4.4101733137    -1.3276860388
Bq        -0.4398814131    -4.2504794071    -1.8542743871
Bq        -0.7189137596    -4.4367889648    -1.2399213141
Bq        -0.4000196493    -4.2238637560    -1.9420391118
Bq        -0.7587755234    -4.4634046159    -1.1521565894
Bq        -0.3601578855    -4.1972481049    -2.0298038365
Bq        -0.5594667044    -4.3303263604    -1.5909802130
Bq        -0.6103349416    -4.2605490288    -1.4789822378
Bq        -0.5306114140    -4.2073177266    -1.6545116872
Bq        -0.6501967054    -4.2871646799    -1.3912175131
Bq        -0.4907496502    -4.1807020755    -1.7422764119
Bq        -0.6900584692    -4.3137803310    -1.3034527884
Bq        -0.4508878864    -4.1540864244    -1.8300411366
Bq        -0.7299202330    -4.3403959821    -1.2156880637
Bq        -0.4110261227    -4.1274707733    -1.9178058614
Bq        -0.7697819967    -4.3670116332    -1.1279233389
Bq        -0.3711643589    -4.1008551222    -2.0055705861
Bq        -0.5704731778    -4.2339333777    -1.5667469625
Bq        -0.6213414150    -4.1641560461    -1.4547489873
Bq        -0.5416178874    -4.1109247439    -1.6302784368
Bq        -0.6612031788    -4.1907716972    -1.3669842626
Bq        -0.5017561236    -4.0843090928    -1.7180431615
Bq        -0.7010649425    -4.2173873483    -1.2792195379
Bq        -0.4618943598    -4.0576934417    -1.8058078862
Bq        -0.7409267063    -4.2440029994    -1.1914548132
Bq        -0.4220325960    -4.0310777905    -1.8935726109
Bq        -0.7807884701    -4.2706186505    -1.1036900885
Bq        -0.3821708322    -4.0044621394    -1.9813373356
Bq        -0.5814796512    -4.1375403950    -1.5425137120
Bq        -0.6323478883    -4.0677630634    -1.4305157369
Bq        -0.5526243608    -4.0145317612    -1.6060451863
Bq        -0.6722096521    -4.0943787145    -1.3427510122
Bq        -0.5127625970    -3.9879161100    -1.6938099110
Bq        -0.7120714159    -4.1209943656    -1.2549862875
Bq        -0.4729008332    -3.9613004589    -1.7815746357
Bq        -0.7519331797    -4.1476100167    -1.1672215627
Bq        -0.4330390694    -3.9346848078    -1.8693393604
Bq        -0.7917949435    -4.1742256678    -1.0794568380
Bq        -0.3931773056    -3.9080691567    -1.9571040852
Bq        -0.5924861245    -4.0411474123    -1.5182804616
Bq        -0.6433543617    -3.9713700807    -1.4062824864
Bq        -0.5636308341    -3.9181387784    -1.5818119358
Bq        -0.6832161255    -3.9979857318    -1.3185177617
Bq        -0.5237690703    -3.8915231273    -1.6695766606
Bq        -0.7230778893    -4.0246013829    -1.2307530370
Bq        -0.4839073066    -3.8649074762    -1.7573413853

1
2
3
4
5
6
7
8
9
10
11
12
13
14
15
16
17
18
19
20
21
22
23
24
25
26
27
28
29
30
31
32
33
34
35
36
37
38
39
40
41
42
43
44
45
46
47
48
49
50
51
52
53
54
55
56
57
58
59
60
61
62
63
64
65
66
67
68
69
70
71
72
73
74
75
76
77
78
79
80
81
82
83
84
85
86
87
88
89
90
91
92
93
94
95
96
97
98
99
100
101
102
103
104
105
106
107
108
109
110
111
112
113
114
115
116
117
118
119
120
121
122
123
124
125
126
127
128
129
130
131
132
133
134
135
136
137
138
139
140
141
142
143
144
145
146
147
148
149
150
151
152
153
154
155
156
157
158
159
160
161
162
163
164
165
166
167
168
169
170
171
172
173
174
175
176
177
178
179
180
181
182
183
184
185
186
187
188
189
190
191
192
193
194
195
196
197
198
199
200
201
202
203
204
205
206
207
208
209
210
211
212
213
214
215
216
217
218
219
220
221
222
223
224
225
226
227
228
229
230
231
232
233
234
235
236

