%nproc=8
%mem=1000MB
# rb3lyp/6-311+g** NMR geom=connectivity

Title

0 1
C    -4.0500558   -0.5771862    0.8136712
H    -5.0263804   -1.0082727    1.0024760
C    -3.9381552    0.6617804    0.2400876
H    -4.8252424    1.2338890   -0.0111295
C    -2.6768410    1.2433246    0.0057578
C    -1.4974121    0.5051527    0.2848253
C    -1.6508332   -0.7338728    0.9404026
H    -0.7713646   -1.2730967    1.2633753
C    -2.8898548   -1.2624035    1.1994307
H    -2.9683706   -2.2124563    1.7152676
C    -2.5773185    2.5963696   -0.4192930
H    -3.4870728    3.1412239   -0.6474055
C    -1.3741895    3.2147896   -0.4364030
H    -1.2997315    4.2742019   -0.6578144
C    -0.1719488    2.4994090   -0.1734588
C    -0.2043917    1.1018437    0.0192689
C     1.0513491    3.2042560   -0.0676222
H     1.0427344    4.2819499   -0.1896997
C     2.1942091    2.5487446    0.2579577
H     3.1168527    3.0912848    0.4334727
C     2.2216473    1.1336562    0.2934990
C     1.0486931    0.3945528    0.0302412
C     3.4483363    0.4614633    0.5573939
H     4.3095794    1.0606054    0.8334846
C     3.5427346   -0.8855926    0.4749463
H     4.4731467   -1.3939704    0.7038822
C     2.4490052   -1.6474447   -0.0196319
C     1.2150704   -1.0057258   -0.3013573
C     0.2531113   -1.7434440   -1.0216591
H    -0.6541356   -1.2535051   -1.3462847
C     0.4494193   -3.0628597   -1.3413779
H    -0.3083162   -3.5944309   -1.9054060
C     1.6251726   -3.7207967   -0.9552541
H     1.7670048   -4.7687404   -1.1927019
C     2.6109872   -3.0144177   -0.3183050
H     3.5525612   -3.4902813   -0.0646367
Bq         0.1415801623    -2.5420213694    -0.9581306655
Bq        -0.0577286567    -2.6750996249    -0.5193070419
Bq         0.1814419261    -2.5154057183    -1.0458953902
Bq        -0.0975904205    -2.7017152760    -0.4315423172
Bq         0.2213036898    -2.4887900672    -1.1336601149
Bq        -0.1374521842    -2.7283309271    -0.3437775925
Bq         0.2611654536    -2.4621744160    -1.2214248396
Bq         0.0618566347    -2.5952526716    -0.7826012161
Bq         0.0109883975    -2.5254753400    -0.6706032409
Bq         0.0907119251    -2.4722440378    -0.8461326903
Bq        -0.0288733663    -2.5520909911    -0.5828385162
Bq         0.1305736889    -2.4456283867    -0.9338974150
Bq        -0.0687351300    -2.5787066422    -0.4950737915
Bq         0.1704354527    -2.4190127355    -1.0216621397
Bq        -0.1085968938    -2.6053222933    -0.4073090668
Bq         0.2102972165    -2.3923970844    -1.1094268645
Bq        -0.1484586576    -2.6319379444    -0.3195443420
Bq         0.2501589803    -2.3657814333    -1.1971915892
Bq         0.0508501613    -2.4988596889    -0.7583679656
Bq        -0.0000180758    -2.4290823573    -0.6463699904
Bq         0.0797054517    -2.3758510550    -0.8218994399
Bq        -0.0398798396    -2.4556980084    -0.5586052657
Bq         0.1195672155    -2.3492354039    -0.9096641646
Bq        -0.0797416034    -2.4823136595    -0.4708405410
Bq         0.1594289793    -2.3226197528    -0.9974288893
Bq        -0.1196033672    -2.5089293106    -0.3830758163
Bq         0.1992907431    -2.2960041017    -1.0851936140
Bq        -0.1594651310    -2.5355449617    -0.2953110916
Bq         0.2391525069    -2.2693884506    -1.1729583387
Bq         0.0398436879    -2.4024667062    -0.7341347151
Bq        -0.0110245492    -2.3326893746    -0.6221367400
Bq         0.0686989784    -2.2794580723    -0.7976661894
Bq        -0.0508863130    -2.3593050257    -0.5343720153
Bq         0.1085607422    -2.2528424212    -0.8854309141
Bq        -0.0907480768    -2.3859206768    -0.4466072906
Bq         0.1484225059    -2.2262267701    -0.9731956388
Bq        -0.1306098406    -2.4125363279    -0.3588425658
Bq         0.1882842697    -2.1996111190    -1.0609603635
Bq        -0.1704716044    -2.4391519790    -0.2710778411
Bq         0.2281460335    -2.1729954679    -1.1487250883
Bq         0.0288372146    -2.3060737234    -0.7099014647
Bq        -0.0220310226    -2.2362963918    -0.5979034895
Bq         0.0576925050    -2.1830650896    -0.7734329389
Bq        -0.0618927864    -2.2629120429    -0.5101387648
Bq         0.0975542688    -2.1564494385    -0.8611976637
Bq        -0.1017545502    -2.2895276941    -0.4223740401
Bq         0.1374160326    -2.1298337874    -0.9489623884
Bq        -0.1416163139    -2.3161433452    -0.3346093154
Bq         0.1772777964    -2.1032181363    -1.0367271131
Bq        -0.1814780777    -2.3427589963    -0.2468445907
Bq         0.2171395601    -2.0766024852    -1.1244918378
Bq         0.0178307412    -2.2096807407    -0.6856682142
Bq        -0.0330374960    -2.1399034091    -0.5736702391
Bq         0.0466860316    -2.0866721069    -0.7491996885
Bq        -0.0728992597    -2.1665190602    -0.4859055143
Bq         0.0865477954    -2.0600564558    -0.8369644132
Bq        -0.1127610235    -2.1931347113    -0.3981407896
Bq         0.1264095592    -2.0334408047    -0.9247291379
Bq        -0.1526227873    -2.2197503624    -0.3103760649
Bq         0.1662713230    -2.0068251536    -1.0124938626
Bq        -0.1924845511    -2.2463660136    -0.2226113402
Bq         0.2061330868    -1.9802095025    -1.1002585873
Bq         0.0068242678    -2.1132877580    -0.6614349638
Bq        -0.0440439693    -2.0435104264    -0.5494369886
Bq         0.0356795582    -1.9902791242    -0.7249664380
Bq        -0.0839057331    -2.0701260775    -0.4616722639
Bq         0.0755413220    -1.9636634731    -0.8127311627
Bq        -0.1237674969    -2.0967417286    -0.3739075392
Bq         0.1154030858    -1.9370478220    -0.9004958875
Bq        -0.1636292607    -2.1233573797    -0.2861428145
Bq         0.1552648496    -1.9104321709    -0.9882606122
Bq        -0.2034910245    -2.1499730308    -0.1983780898
Bq         0.1951266134    -1.8838165198    -1.0760253369
Bq        -0.0041822055    -2.0168947753    -0.6372017133
Bq        -0.0550504427    -1.9471174437    -0.5252037381
Bq         0.0246730849    -1.8938861415    -0.7007331876
Bq        -0.0949122065    -1.9737330948    -0.4374390134
Bq         0.0645348487    -1.8672704904    -0.7884979123
Bq        -0.1347739703    -2.0003487459    -0.3496742887
Bq         0.1043966125    -1.8406548393    -0.8762626370
Bq        -0.1746357341    -2.0269643970    -0.2619095640
Bq         0.1442583762    -1.8140391882    -0.9640273617
Bq        -0.2144974978    -2.0535800481    -0.1741448393
Bq         0.1841201400    -1.7874235371    -1.0517920864
Bq        -0.0151886789    -1.9205017926    -0.6129684629
Bq        -0.0660569161    -1.8507244610    -0.5009704877
Bq         0.0136666115    -1.7974931588    -0.6764999371
Bq        -0.1059186799    -1.8773401121    -0.4132057630
Bq         0.0535283753    -1.7708775077    -0.7642646618
Bq        -0.1457804436    -1.9039557632    -0.3254410383
Bq         0.0933901391    -1.7442618566    -0.8520293865
Bq        -0.1856422074    -1.9305714143    -0.2376763135
Bq         0.1332519029    -1.7176462055    -0.9397941112
Bq        -0.2255039712    -1.9571870654    -0.1499115888
Bq         0.1731136667    -1.6910305543    -1.0275588360
Bq        -0.0261951523    -1.8241088099    -0.5887352124
Bq        -0.0770633894    -1.7543314783    -0.4767372372
Bq         0.0026601381    -1.7011001761    -0.6522666867
Bq        -0.1169251532    -1.7809471294    -0.3889725125
Bq         0.0425219019    -1.6744845250    -0.7400314114
Bq        -0.1567869170    -1.8075627805    -0.3012077878
Bq         0.0823836657    -1.6478688739    -0.8277961361
Bq        -0.1966486808    -1.8341784316    -0.2134430631
Bq         0.1222454295    -1.6212532227    -0.9155608608
Bq        -0.2365104446    -1.8607940827    -0.1256783384
Bq         0.1621071933    -1.5946375716    -1.0033255855
Bq        -0.0372016257    -1.7277158272    -0.5645019619
Bq        -0.0880698628    -1.6579384956    -0.4525039868
Bq        -0.0083463352    -1.6047071934    -0.6280334362
Bq        -0.1279316266    -1.6845541467    -0.3647392621
Bq         0.0315154285    -1.5780915422    -0.7157981609
Bq        -0.1677933904    -1.7111697978    -0.2769745373
Bq         0.0713771923    -1.5514758911    -0.8035628856
Bq        -0.2076551542    -1.7377854489    -0.1892098126
Bq         0.1112389561    -1.5248602400    -0.8913276103
Bq        -0.2475169180    -1.7644011000    -0.1014450879
Bq         0.1511007199    -1.4982445889    -0.9790923350
Bq        -0.0482080990    -1.6313228445    -0.5402687115
Bq        -0.0990763362    -1.5615455129    -0.4282707363
Bq        -0.0193528086    -1.5083142106    -0.6038001857
Bq        -0.1389381000    -1.5881611640    -0.3405060116
Bq         0.0205089552    -1.4816985595    -0.6915649105
Bq        -0.1787998638    -1.6147768151    -0.2527412869
Bq         0.0603707190    -1.4550829084    -0.7793296352
Bq        -0.2186616276    -1.6413924662    -0.1649765622
Bq         0.1002324827    -1.4284672573    -0.8670943599
Bq        -0.2585233913    -1.6680081173    -0.0772118375
Bq         0.1400942465    -1.4018516062    -0.9548590846
Bq        -0.0592145724    -1.5349298617    -0.5160354610
Bq        -0.1100828096    -1.4651525301    -0.4040374859
Bq        -0.0303592820    -1.4119212279    -0.5795669353
Bq        -0.1499445733    -1.4917681812    -0.3162727611
Bq         0.0095024818    -1.3853055768    -0.6673316600
Bq        -0.1898063371    -1.5183838324    -0.2285080364
Bq         0.0493642456    -1.3586899257    -0.7550963847
Bq        -0.2296681009    -1.5449994835    -0.1407433117
Bq         0.0892260094    -1.3320742746    -0.8428611094
Bq        -0.2695298647    -1.5716151346    -0.0529785870
Bq         0.1290877732    -1.3054586235    -0.9306258341
Bq        -0.0702210458    -1.4385368790    -0.4918022106
Bq        -0.1210892829    -1.3687595474    -0.3798042354
Bq        -0.0413657554    -1.3155282452    -0.5553336848
Bq        -0.1609510467    -1.3953751985    -0.2920395107
Bq        -0.0015039916    -1.2889125941    -0.6430984095
Bq        -0.2008128105    -1.4219908496    -0.2042747860
Bq         0.0383577722    -1.2622969430    -0.7308631342
Bq        -0.2406745743    -1.4486065008    -0.1165100613
Bq         0.0782195360    -1.2356812919    -0.8186278590
Bq        -0.2805363381    -1.4752221519    -0.0287453365
Bq         0.1180812998    -1.2090656408    -0.9063925837
Bq        -0.0812275191    -1.3421438963    -0.4675689601
Bq        -0.1320957563    -1.2723665647    -0.3555709849
Bq        -0.0523722287    -1.2191352625    -0.5311004344
Bq        -0.1719575201    -1.2989822158    -0.2678062602
Bq        -0.0125104649    -1.1925196114    -0.6188651591
Bq        -0.2118192839    -1.3255978669    -0.1800415355
Bq         0.0273512988    -1.1659039603    -0.7066298838
Bq        -0.2516810477    -1.3522135180    -0.0922768108
Bq         0.0672130626    -1.1392883092    -0.7943946085
Bq        -0.2915428115    -1.3788291691    -0.0045120861
Bq         0.1070748264    -1.1126726581    -0.8821593332
Bq        -0.0922339925    -1.2457509136    -0.4433357097
Bq        -0.1431022297    -1.1759735820    -0.3313377345
Bq        -0.0633787021    -1.1227422798    -0.5068671839
Bq        -0.1829639935    -1.2025892331    -0.2435730098
Bq        -0.0235169383    -1.0961266287    -0.5946319086
Bq        -0.2228257573    -1.2292048842    -0.1558082851
Bq         0.0163448255    -1.0695109776    -0.6823966333
Bq        -0.2626875210    -1.2558205353    -0.0680435603
Bq         0.0562065893    -1.0428953265    -0.7701613580
Bq        -0.3025492848    -1.2824361864     0.0197211644
Bq         0.0960683530    -1.0162796754    -0.8579260828
Bq        -0.1032404659    -1.1493579309    -0.4191024592
Bq        -0.1541087030    -1.0795805993    -0.3071044840
Bq        -0.0743851755    -1.0263492971    -0.4826339334
Bq        -0.1939704668    -1.1061962504    -0.2193397593
Bq        -0.0345234117    -0.9997336460    -0.5703986582
Bq        -0.2338322306    -1.1328119015    -0.1315750346
Bq         0.0053383521    -0.9731179949    -0.6581633829
Bq        -0.2736939944    -1.1594275526    -0.0438103099
Bq         0.0452001159    -0.9465023438    -0.7459281076
Bq        -0.3135557582    -1.1860432037     0.0439544148
Bq         0.0850618797    -0.9198866927    -0.8336928323
Bq        -0.1142469393    -1.0529649482    -0.3948692087
Bq        -0.1651151764    -0.9831876166    -0.2828712336
Bq        -0.0853916488    -0.9299563144    -0.4584006830
Bq        -0.2049769402    -1.0098032677    -0.1951065089
Bq        -0.0455298851    -0.9033406633    -0.5461654077
Bq        -0.2448387040    -1.0364189188    -0.1073417841
Bq        -0.0056681213    -0.8767250122    -0.6339301324
Bq        -0.2847004678    -1.0630345699    -0.0195770594
Bq         0.0341936425    -0.8501093610    -0.7216948571
Bq        -0.3245622316    -1.0896502210     0.0681876653
Bq         0.0740554063    -0.8234937099    -0.8094595818
Bq        -0.1252534126    -0.9565719655    -0.3706359583
Bq        -0.1761216498    -0.8867946339    -0.2586379831
Bq        -0.0963981222    -0.8335633317    -0.4341674325
Bq        -0.2159834136    -0.9134102850    -0.1708732584
Bq        -0.0565363584    -0.8069476805    -0.5219321572
Bq        -0.2558451774    -0.9400259361    -0.0831085337

1
2
3
4
5
6
7
8
9
10
11
12
13
14
15
16
17
18
19
20
21
22
23
24
25
26
27
28
29
30
31
32
33
34
35
36
37
38
39
40
41
42
43
44
45
46
47
48
49
50
51
52
53
54
55
56
57
58
59
60
61
62
63
64
65
66
67
68
69
70
71
72
73
74
75
76
77
78
79
80
81
82
83
84
85
86
87
88
89
90
91
92
93
94
95
96
97
98
99
100
101
102
103
104
105
106
107
108
109
110
111
112
113
114
115
116
117
118
119
120
121
122
123
124
125
126
127
128
129
130
131
132
133
134
135
136
137
138
139
140
141
142
143
144
145
146
147
148
149
150
151
152
153
154
155
156
157
158
159
160
161
162
163
164
165
166
167
168
169
170
171
172
173
174
175
176
177
178
179
180
181
182
183
184
185
186
187
188
189
190
191
192
193
194
195
196
197
198
199
200
201
202
203
204
205
206
207
208
209
210
211
212
213
214
215
216
217
218
219
220
221
222
223
224
225
226
227
228
229
230
231
232
233
234
235
236

