%nproc=8
%mem=1000MB
# rb3lyp/6-311+g** NMR geom=connectivity

Title

0 1
C    -4.0500558   -0.5771862    0.8136712
H    -5.0263804   -1.0082727    1.0024760
C    -3.9381552    0.6617804    0.2400876
H    -4.8252424    1.2338890   -0.0111295
C    -2.6768410    1.2433246    0.0057578
C    -1.4974121    0.5051527    0.2848253
C    -1.6508332   -0.7338728    0.9404026
H    -0.7713646   -1.2730967    1.2633753
C    -2.8898548   -1.2624035    1.1994307
H    -2.9683706   -2.2124563    1.7152676
C    -2.5773185    2.5963696   -0.4192930
H    -3.4870728    3.1412239   -0.6474055
C    -1.3741895    3.2147896   -0.4364030
H    -1.2997315    4.2742019   -0.6578144
C    -0.1719488    2.4994090   -0.1734588
C    -0.2043917    1.1018437    0.0192689
C     1.0513491    3.2042560   -0.0676222
H     1.0427344    4.2819499   -0.1896997
C     2.1942091    2.5487446    0.2579577
H     3.1168527    3.0912848    0.4334727
C     2.2216473    1.1336562    0.2934990
C     1.0486931    0.3945528    0.0302412
C     3.4483363    0.4614633    0.5573939
H     4.3095794    1.0606054    0.8334846
C     3.5427346   -0.8855926    0.4749463
H     4.4731467   -1.3939704    0.7038822
C     2.4490052   -1.6474447   -0.0196319
C     1.2150704   -1.0057258   -0.3013573
C     0.2531113   -1.7434440   -1.0216591
H    -0.6541356   -1.2535051   -1.3462847
C     0.4494193   -3.0628597   -1.3413779
H    -0.3083162   -3.5944309   -1.9054060
C     1.6251726   -3.7207967   -0.9552541
H     1.7670048   -4.7687404   -1.1927019
C     2.6109872   -3.0144177   -0.3183050
H     3.5525612   -3.4902813   -0.0646367
Bq        -1.2169747274     3.5093827805    -0.1169830707
Bq        -1.2285006714     3.5830307327     0.1736079335
Bq        -1.2131327461     3.4848334632    -0.2138467388
Bq        -1.2323426527     3.6075800500     0.2704716016
Bq        -1.2092907647     3.4602841458    -0.3107104069
Bq        -1.2361846340     3.6321293674     0.3673352697
Bq        -1.2054487834     3.4357348284    -0.4075740750
Bq        -1.2400266154     3.6566786848     0.4641989378
Bq        -1.2016068021     3.4111855110    -0.5044377431
Bq        -1.2208167087     3.5339320979    -0.0201194027
Bq        -1.2236857358     3.6554212472     0.0522142360
Bq        -1.2160017732     3.6063226125    -0.1415131002
Bq        -1.2275277172     3.6799705646     0.1490779041
Bq        -1.2121597918     3.5817732951    -0.2383767683
Bq        -1.2313696985     3.7045198820     0.2459415722
Bq        -1.2083178105     3.5572239777    -0.3352404364
Bq        -1.2352116798     3.7290691993     0.3428052403
Bq        -1.2044758292     3.5326746603    -0.4321041044
Bq        -1.2390536611     3.7536185167     0.4396689084
Bq        -1.2006338479     3.5081253430    -0.5289677725
Bq        -1.2198437545     3.6308719298    -0.0446494321
Bq        -1.2227127816     3.7523610792     0.0276842066
Bq        -1.2150288189     3.7032624444    -0.1660431296
Bq        -1.2265547629     3.7769103965     0.1245478747
Bq        -1.2111868376     3.6787131270    -0.2629067977
Bq        -1.2303967443     3.8014597139     0.2214115428
Bq        -1.2073448563     3.6541638097    -0.3597704658
Bq        -1.2342387256     3.8260090313     0.3182752108
Bq        -1.2035028750     3.6296144923    -0.4566341339
Bq        -1.2380807069     3.8505583487     0.4151388789
Bq        -1.1996608936     3.6050651749    -0.5534978020
Bq        -1.2188708003     3.7278117618    -0.0691794615
Bq        -1.2217398274     3.8493009111     0.0031541772
Bq        -1.2140558647     3.8002022763    -0.1905731590
Bq        -1.2255818087     3.8738502285     0.1000178452
Bq        -1.2102138834     3.7756529590    -0.2874368271
Bq        -1.2294237900     3.8983995458     0.1968815133
Bq        -1.2063719021     3.7511036416    -0.3843004952
Bq        -1.2332657714     3.9229488632     0.2937451814
Bq        -1.2025299207     3.7265543242    -0.4811641633
Bq        -1.2371077527     3.9474981806     0.3906088495
Bq        -1.1986879394     3.7020050068    -0.5780278314
Bq        -1.2178978460     3.8247515937    -0.0937094909
Bq        -1.2207668732     3.9462407430    -0.0213758523
Bq        -1.2130829105     3.8971421083    -0.2151031885
Bq        -1.2246088545     3.9707900604     0.0754878158
Bq        -1.2092409292     3.8725927909    -0.3119668565
Bq        -1.2284508358     3.9953393778     0.1723514839
Bq        -1.2053989478     3.8480434735    -0.4088305246
Bq        -1.2322928171     4.0198886952     0.2692151520
Bq        -1.2015569665     3.8234941562    -0.5056941927
Bq        -1.2361347985     4.0444380125     0.3660788201
Bq        -1.1977149852     3.7989448388    -0.6025578608
Bq        -1.2169248918     3.9216914257    -0.1182395204
Bq        -1.2197939189     4.0431805750    -0.0459058817
Bq        -1.2121099563     3.9940819402    -0.2396332179
Bq        -1.2236359003     4.0677298924     0.0509577864
Bq        -1.2082679749     3.9695326228    -0.3364968860
Bq        -1.2274778816     4.0922792097     0.1478214545
Bq        -1.2044259936     3.9449833055    -0.4333605541
Bq        -1.2313198629     4.1168285271     0.2446851226
Bq        -1.2005840123     3.9204339881    -0.5302242222
Bq        -1.2351618442     4.1413778445     0.3415487907
Bq        -1.1967420310     3.8958846707    -0.6270878902
Bq        -1.2159519376     4.0186312576    -0.1427695498
Bq        -1.2188209647     4.1401204069    -0.0704359111
Bq        -1.2111370020     4.0910217722    -0.2641632473
Bq        -1.2226629460     4.1646697243     0.0264277570
Bq        -1.2072950207     4.0664724548    -0.3610269154
Bq        -1.2265049274     4.1892190417     0.1232914251
Bq        -1.2034530394     4.0419231374    -0.4578905835
Bq        -1.2303469087     4.2137683590     0.2201550931
Bq        -1.1996110581     4.0173738200    -0.5547542516
Bq        -1.2341888900     4.2383176764     0.3170187612
Bq        -1.1957690767     3.9928245027    -0.6516179197
Bq        -1.2149789834     4.1155710895    -0.1672995792
Bq        -1.2178480105     4.2370602389    -0.0949659406
Bq        -1.2101640478     4.1879616041    -0.2886932767
Bq        -1.2216899918     4.2616095562     0.0018977275
Bq        -1.2063220665     4.1634122867    -0.3855569448
Bq        -1.2255319731     4.2861588736     0.0987613956
Bq        -1.2024800852     4.1388629694    -0.4824206129
Bq        -1.2293739545     4.3107081910     0.1956250637
Bq        -1.1986381038     4.1143136520    -0.5792842810
Bq        -1.2332159358     4.3352575084     0.2924887318
Bq        -1.1947961225     4.0897643346    -0.6761479491
Bq        -1.2140060292     4.2125109215    -0.1918296086
Bq        -1.2168750563     4.3340000708    -0.1194959700
Bq        -1.2091910936     4.2849014360    -0.3132233062
Bq        -1.2207170376     4.3585493882    -0.0226323019
Bq        -1.2053491123     4.2603521187    -0.4100869743
Bq        -1.2245590189     4.3830987055     0.0742313662
Bq        -1.2015071309     4.2358028013    -0.5069506423
Bq        -1.2284010002     4.4076480229     0.1710950343
Bq        -1.1976651496     4.2112534839    -0.6038143104
Bq        -1.2322429816     4.4321973403     0.2679587024
Bq        -1.1938231683     4.1867041665    -0.7006779785
Bq        -1.2130330749     4.3094507534    -0.2163596381
Bq        -1.2159021020     4.4309399027    -0.1440259994
Bq        -1.2082181394     4.3818412680    -0.3377533356
Bq        -1.2197440834     4.4554892201    -0.0471623313
Bq        -1.2043761580     4.3572919506    -0.4346170037
Bq        -1.2235860647     4.4800385375     0.0497013368
Bq        -1.2005341767     4.3327426332    -0.5314806718
Bq        -1.2274280460     4.5045878549     0.1465650049
Bq        -1.1966921954     4.3081933159    -0.6283443399
Bq        -1.2312700273     4.5291371722     0.2434286729
Bq        -1.1928502141     4.2836439985    -0.7252080080
Bq        -1.2120601207     4.4063905854    -0.2408896675
Bq        -1.1646283814    -0.4160516942     1.0864387358
Bq        -1.1569444188    -0.4651503290     0.8927113996
Bq        -1.1684703627    -0.3915023768     1.1833024039
Bq        -1.1531024374    -0.4896996464     0.7958477315
Bq        -1.1723123441    -0.3669530595     1.2801660720
Bq        -1.1492604561    -0.5142489637     0.6989840635
Bq        -1.1761543254    -0.3424037421     1.3770297401
Bq        -1.1454184748    -0.5387982811     0.6021203954
Bq        -1.1799963067    -0.3178544247     1.4738934082
Bq        -1.1415764934    -0.5633475985     0.5052567273
Bq        -1.1607864001    -0.4406010116     0.9895750677
Bq        -1.1636554272    -0.3191118623     1.0619087064
Bq        -1.1559714645    -0.3682104970     0.8681813702
Bq        -1.1674974085    -0.2945625449     1.1587723745
Bq        -1.1521294832    -0.3927598144     0.7713177021
Bq        -1.1713393899    -0.2700132275     1.2556360426
Bq        -1.1482875019    -0.4173091318     0.6744540340
Bq        -1.1751813712    -0.2454639102     1.3524997107
Bq        -1.1444455206    -0.4418584492     0.5775903659
Bq        -1.1790233525    -0.2209145928     1.4493633787
Bq        -1.1406035392    -0.4664077665     0.4807266978
Bq        -1.1598134459    -0.3436611797     0.9650450383
Bq        -1.1626824730    -0.2221720303     1.0373786770
Bq        -1.1549985103    -0.2712706651     0.8436513408
Bq        -1.1665244543    -0.1976227130     1.1342423450
Bq        -1.1511565290    -0.2958199825     0.7467876727
Bq        -1.1703664356    -0.1730733956     1.2311060131
Bq        -1.1473145477    -0.3203692998     0.6499240046
Bq        -1.1742084170    -0.1485240782     1.3279696812
Bq        -1.1434725663    -0.3449186172     0.5530603365
Bq        -1.1780503983    -0.1239747608     1.4248333493
Bq        -1.1396305850    -0.3694679346     0.4561966684
Bq        -1.1588404916    -0.2467213477     0.9405150089
Bq        -1.1617095187    -0.1252321984     1.0128486475
Bq        -1.1540255561    -0.1743308332     0.8191213113
Bq        -1.1655515001    -0.1006828810     1.1097123156
Bq        -1.1501835748    -0.1988801505     0.7222576433
Bq        -1.1693934814    -0.0761335637     1.2065759837
Bq        -1.1463415934    -0.2234294679     0.6253939752
Bq        -1.1732354627    -0.0515842463     1.3034396518
Bq        -1.1424996121    -0.2479787853     0.5285303071
Bq        -1.1770774441    -0.0270349289     1.4003033199
Bq        -1.1386576308    -0.2725281027     0.4316666390
Bq        -1.1578675374    -0.1497815158     0.9159849794
Bq        -1.1607365645    -0.0282923665     0.9883186181
Bq        -1.1530526019    -0.0773910012     0.7945912819
Bq        -1.1645785459    -0.0037430491     1.0851822862
Bq        -1.1492106205    -0.1019403186     0.6977276138
Bq        -1.1684205272     0.0208062683     1.1820459543
Bq        -1.1453686392    -0.1264896360     0.6008639457
Bq        -1.1722625085     0.0453555857     1.2789096224
Bq        -1.1415266579    -0.1510389533     0.5040002777
Bq        -1.1761044898     0.0699049030     1.3757732905
Bq        -1.1376846765    -0.1755882707     0.4071366096
Bq        -1.1568945832    -0.0528416838     0.8914549500
Bq        -1.1597636103     0.0686474655     0.9637885887
Bq        -1.1520796476     0.0195488307     0.7700612525
Bq        -1.1636055916     0.0931967828     1.0606522568
Bq        -1.1482376663    -0.0050004867     0.6731975844
Bq        -1.1674475730     0.1177461002     1.1575159249
Bq        -1.1443956850    -0.0295498040     0.5763339163
Bq        -1.1712895543     0.1422954176     1.2543795929
Bq        -1.1405537037    -0.0540991214     0.4794702482
Bq        -1.1751315356     0.1668447350     1.3512432610
Bq        -1.1367117223    -0.0786484388     0.3826065801
Bq        -1.1559216290     0.0440981481     0.8669249206
Bq        -1.1587906561     0.1655872974     0.9392585592
Bq        -1.1511066934     0.1164886627     0.7455312231
Bq        -1.1626326374     0.1901366148     1.0361222273
Bq        -1.1472647121     0.0919393453     0.6486675550
Bq        -1.1664746187     0.2146859322     1.1329858954
Bq        -1.1434227308     0.0673900279     0.5518038869
Bq        -1.1703166001     0.2392352495     1.2298495635
Bq        -1.1395807494     0.0428407105     0.4549402188
Bq        -1.1741585814     0.2637845669     1.3267132316
Bq        -1.1357387681     0.0182913932     0.3580765507
Bq        -1.1549486747     0.1410379800     0.8423948912
Bq        -1.1578177018     0.2625271294     0.9147285298
Bq        -1.1501337392     0.2134284946     0.7210011936
Bq        -1.1616596832     0.2870764467     1.0115921979
Bq        -1.1462917579     0.1888791772     0.6241375256
Bq        -1.1655016645     0.3116257641     1.1084558660
Bq        -1.1424497765     0.1643298598     0.5272738575
Bq        -1.1693436458     0.3361750815     1.2053195341
Bq        -1.1386077952     0.1397805425     0.4304101894
Bq        -1.1731856272     0.3607243989     1.3021832022
Bq        -1.1347658139     0.1152312251     0.3335465213
Bq        -1.1539757205     0.2379778120     0.8178648617
Bq        -1.1568447476     0.3594669613     0.8901985004
Bq        -1.1491607850     0.3103683265     0.6964711642
Bq        -1.1606867290     0.3840162787     0.9870621685

1
2
3
4
5
6
7
8
9
10
11
12
13
14
15
16
17
18
19
20
21
22
23
24
25
26
27
28
29
30
31
32
33
34
35
36
37
38
39
40
41
42
43
44
45
46
47
48
49
50
51
52
53
54
55
56
57
58
59
60
61
62
63
64
65
66
67
68
69
70
71
72
73
74
75
76
77
78
79
80
81
82
83
84
85
86
87
88
89
90
91
92
93
94
95
96
97
98
99
100
101
102
103
104
105
106
107
108
109
110
111
112
113
114
115
116
117
118
119
120
121
122
123
124
125
126
127
128
129
130
131
132
133
134
135
136
137
138
139
140
141
142
143
144
145
146
147
148
149
150
151
152
153
154
155
156
157
158
159
160
161
162
163
164
165
166
167
168
169
170
171
172
173
174
175
176
177
178
179
180
181
182
183
184
185
186
187
188
189
190
191
192
193
194
195
196
197
198
199
200
201
202
203
204
205
206
207
208
209
210
211
212
213
214
215
216
217
218
219
220
221
222
223
224
225
226
227
228
229
230
231
232
233
234
235
236

