%nproc=8
%mem=1000MB
# rb3lyp/6-311+g** NMR geom=connectivity

Title

0 1
C    -4.0500558   -0.5771862    0.8136712
H    -5.0263804   -1.0082727    1.0024760
C    -3.9381552    0.6617804    0.2400876
H    -4.8252424    1.2338890   -0.0111295
C    -2.6768410    1.2433246    0.0057578
C    -1.4974121    0.5051527    0.2848253
C    -1.6508332   -0.7338728    0.9404026
H    -0.7713646   -1.2730967    1.2633753
C    -2.8898548   -1.2624035    1.1994307
H    -2.9683706   -2.2124563    1.7152676
C    -2.5773185    2.5963696   -0.4192930
H    -3.4870728    3.1412239   -0.6474055
C    -1.3741895    3.2147896   -0.4364030
H    -1.2997315    4.2742019   -0.6578144
C    -0.1719488    2.4994090   -0.1734588
C    -0.2043917    1.1018437    0.0192689
C     1.0513491    3.2042560   -0.0676222
H     1.0427344    4.2819499   -0.1896997
C     2.1942091    2.5487446    0.2579577
H     3.1168527    3.0912848    0.4334727
C     2.2216473    1.1336562    0.2934990
C     1.0486931    0.3945528    0.0302412
C     3.4483363    0.4614633    0.5573939
H     4.3095794    1.0606054    0.8334846
C     3.5427346   -0.8855926    0.4749463
H     4.4731467   -1.3939704    0.7038822
C     2.4490052   -1.6474447   -0.0196319
C     1.2150704   -1.0057258   -0.3013573
C     0.2531113   -1.7434440   -1.0216591
H    -0.6541356   -1.2535051   -1.3462847
C     0.4494193   -3.0628597   -1.3413779
H    -0.3083162   -3.5944309   -1.9054060
C     1.6251726   -3.7207967   -0.9552541
H     1.7670048   -4.7687404   -1.1927019
C     2.6109872   -3.0144177   -0.3183050
H     3.5525612   -3.4902813   -0.0646367
Bq        -1.8863678683     0.7243492237     1.2207605500
Bq        -1.8835359037     0.3764874877     0.5003549749
Bq        -1.8867218639     0.7678319407     1.3108112468
Bq        -1.8831819081     0.3330047707     0.4103042780
Bq        -1.8849518860     0.5504183557     0.8605577624
Bq        -1.8851349493     0.6839524654     0.9071260783
Bq        -1.8844269582     0.5969870314     0.7270246845
Bq        -1.8854889449     0.7274351824     0.9971767752
Bq        -1.8840729626     0.5535043144     0.6369739876
Bq        -1.8858429405     0.7709178994     1.0872274720
Bq        -1.8837189670     0.5100215974     0.5469232907
Bq        -1.8861969360     0.8144006164     1.1772781689
Bq        -1.8833649714     0.4665388804     0.4568725939
Bq        -1.8865509316     0.8578833334     1.2673288658
Bq        -1.8830109759     0.4230561634     0.3668218970
Bq        -1.8847809537     0.6404697484     0.8170753814
Bq        -1.8849640170     0.7740038581     0.8636436972
Bq        -1.8842560259     0.6870384240     0.6835423035
Bq        -1.8853180126     0.8174865751     0.9536943941
Bq        -1.8839020303     0.6435557070     0.5934916066
Bq        -1.8856720082     0.8609692921     1.0437450910
Bq        -1.8835480347     0.6000729900     0.5034409097
Bq        -1.8860260038     0.9044520091     1.1337957879
Bq        -1.8831940392     0.5565902730     0.4133902128
Bq        -1.8863799993     0.9479347261     1.2238464848
Bq        -1.8828400436     0.5131075560     0.3233395160
Bq        -1.8846100215     0.7305211410     0.7735930004
Bq        -1.8847930848     0.8640552507     0.8201613162
Bq        -1.8840850936     0.7770898167     0.6400599224
Bq        -1.8851470803     0.9075379677     0.9102120131
Bq        -1.8837310980     0.7336070997     0.5500092256
Bq        -1.8855010759     0.9510206847     1.0002627100
Bq        -1.8833771025     0.6901243827     0.4599585287
Bq        -1.8858550715     0.9945034017     1.0903134069
Bq        -1.8830231069     0.6466416657     0.3699078318
Bq        -1.8862090671     1.0379861187     1.1803641037
Bq        -1.8826691113     0.6031589487     0.2798571349
Bq        -1.8844390892     0.8205725337     0.7301106193
Bq        -1.8846221525     0.9541066434     0.7766789352
Bq        -1.8839141613     0.8671412094     0.5965775414
Bq        -1.8849761481     0.9975893604     0.8667296321
Bq        -1.8835601658     0.8236584924     0.5065268445
Bq        -1.8853301436     1.0410720774     0.9567803289
Bq        -1.8832061702     0.7801757754     0.4164761477
Bq        -1.8856841392     1.0845547944     1.0468310258
Bq        -1.8828521746     0.7366930584     0.3264254508
Bq        -1.8860381348     1.1280375114     1.1368817227
Bq        -1.8824981790     0.6932103414     0.2363747539
Bq        -1.8842681569     0.9106239264     0.6866282383
Bq        -1.8844512202     1.0441580361     0.7331965541
Bq        -1.8837432291     0.9571926021     0.5530951604
Bq        -1.8848052158     1.0876407531     0.8232472510
Bq        -1.8833892335     0.9137098850     0.4630444635
Bq        -1.8851592114     1.1311234701     0.9132979479
Bq        -1.8830352379     0.8702271680     0.3729937666
Bq        -1.8855132069     1.1746061871     1.0033486448
Bq        -1.8826812423     0.8267444510     0.2829430697
Bq        -1.8858672025     1.2180889041     1.0933993417
Bq        -1.8823272468     0.7832617340     0.1928923729
Bq        -1.8840972246     1.0006753191     0.6431458573
Bq        -1.8842802879     1.1342094287     0.6897141731
Bq        -1.8835722968     1.0472439947     0.5096127794
Bq        -1.8846342835     1.1776921457     0.7797648700
Bq        -1.8832183012     1.0037612777     0.4195620825
Bq        -1.8849882791     1.2211748627     0.8698155669
Bq        -1.8828643056     0.9602785607     0.3295113856
Bq        -1.8853422747     1.2646575797     0.9598662638
Bq        -1.8825103101     0.9167958437     0.2394606887
Bq        -1.8856962702     1.3081402968     1.0499169606
Bq        -1.8821563145     0.8733131267     0.1494099918
Bq        -1.8839262924     1.0907267117     0.5996634762
Bq        -1.8841093557     1.2242608214     0.6462317921
Bq        -1.8834013645     1.1372953874     0.4661303983
Bq        -1.8844633512     1.2677435384     0.7362824890
Bq        -1.8830473689     1.0938126704     0.3760797014
Bq        -1.8848173468     1.3112262554     0.8263331859
Bq        -1.8826933734     1.0503299534     0.2860290046
Bq        -1.8851713424     1.3547089724     0.9163838827
Bq        -1.8823393778     1.0068472364     0.1959783077
Bq        -1.8855253380     1.3981916894     1.0064345796
Bq        -1.8819853822     0.9633645194     0.1059276108
Bq        -1.8837553601     1.1807781044     0.5561810952
Bq        -1.8839384234     1.3143122141     0.6027494111
Bq        -1.8832304322     1.2273467801     0.4226480173
Bq        -1.8842924190     1.3577949311     0.6928001079
Bq        -1.8828764367     1.1838640631     0.3325973204
Bq        -1.8846464145     1.4012776481     0.7828508048
Bq        -1.8825224411     1.1403813461     0.2425466235
Bq        -1.8850004101     1.4447603651     0.8729015017
Bq        -1.8821684455     1.0968986291     0.1524959266
Bq        -1.8853544057     1.4882430821     0.9629521986
Bq        -1.8818144499     1.0534159120     0.0624452298
Bq        -1.8835844278     1.2708294971     0.5126987142
Bq        -1.8837674911     1.4043636067     0.5592670300
Bq        -1.8830595000     1.3173981727     0.3791656363
Bq        -1.8841214867     1.4478463237     0.6493177269
Bq        -1.8827055044     1.2739154557     0.2891149394
Bq        -1.8844754823     1.4913290408     0.7393684238
Bq        -1.8823515088     1.2304327387     0.1990642425
Bq        -1.8848294778     1.5348117578     0.8294191207
Bq        -1.8819975132     1.1869500217     0.1090135456
Bq        -1.8851834734     1.5782944748     0.9194698176
Bq        -1.8816435177     1.1434673047     0.0189628487
Bq        -1.8834134955     1.3608808897     0.4692163331
Bq        -1.8835965588     1.4944149994     0.5157846490
Bq        -1.8828885677     1.4074495654     0.3356832552
Bq        -1.8839505544     1.5378977164     0.6058353459
Bq        -1.8825345721     1.3639668484     0.2456325583
Bq        -1.8843045500     1.5813804334     0.6958860428
Bq        -1.8821805765     1.3204841314     0.1555818615
Bq        -1.8846585456     1.6248631504     0.7859367396
Bq        -1.8818265810     1.2770014144     0.0655311646
Bq        -1.8850125411     1.6683458674     0.8759874365
Bq        -1.8814725854     1.2335186974    -0.0245195323
Bq        -1.8832425633     1.4509322824     0.4257339521
Bq        -1.8834256266     1.5844663921     0.4723022680
Bq        -1.8827176354     1.4975009581     0.2922008742
Bq        -1.8837796221     1.6279491091     0.5623529648
Bq        -1.8823636398     1.4540182411     0.2021501773
Bq        -1.8841336177     1.6714318261     0.6524036617
Bq        -1.8820096443     1.4105355241     0.1120994804
Bq        -1.8844876133     1.7149145431     0.7424543586
Bq        -1.8816556487     1.3670528071     0.0220487835
Bq        -1.8848416089     1.7583972601     0.8325050555
Bq        -1.8813016531     1.3235700901    -0.0680019133
Bq        -1.8830716310     1.5409836751     0.3822515711
Bq        -1.8832546943     1.6745177848     0.4288198869
Bq        -1.8825467031     1.5875523507     0.2487184932
Bq        -1.8836086899     1.7180005018     0.5188705838
Bq        -1.8821927076     1.5440696337     0.1586677963
Bq        -1.8839626854     1.7614832188     0.6089212807
Bq        -1.8818387120     1.5005869167     0.0686170994
Bq        -1.8843166810     1.8049659358     0.6989719776
Bq        -1.8814847164     1.4571041997    -0.0214335975
Bq        -1.8846706766     1.8484486528     0.7890226745
Bq        -1.8811307208     1.4136214827    -0.1114842944
Bq        -1.8829006987     1.6310350678     0.3387691900
Bq        -1.8830837620     1.7645691774     0.3853375059
Bq        -1.8823757709     1.6776037434     0.2052361121
Bq        -1.8834377576     1.8080518944     0.4753882028
Bq        -1.8820217753     1.6341210264     0.1151854152
Bq        -1.8837917532     1.8515346114     0.5654388997
Bq        -1.8816677797     1.5906383094     0.0251347184
Bq        -1.8841457487     1.8950173284     0.6554895965
Bq        -1.8813137841     1.5471555924    -0.0649159785
Bq        -1.8844997443     1.9385000454     0.7455402934
Bq        -1.8809597886     1.5036728754    -0.1549666754
Bq        -1.8827297664     1.7210864604     0.2952868090
Bq        -1.8829128297     1.8546205701     0.3418551249
Bq        -1.8822048386     1.7676551361     0.1617537311
Bq        -1.8832668253     1.8981032871     0.4319058217
Bq        -1.8818508430     1.7241724191     0.0717030342
Bq        -1.8836208209     1.9415860041     0.5219565186
Bq        -1.8814968474     1.6806897021    -0.0183476627
Bq        -1.8839748165     1.9850687211     0.6120072155
Bq        -1.8811428519     1.6372069851    -0.1083983596
Bq        -1.8843288120     2.0285514381     0.7020579124
Bq        -1.8807888563     1.5937242681    -0.1984490564
Bq        -1.8825588342     1.8111378531     0.2518044280
Bq        -1.8827418975     1.9446719628     0.2983727438
Bq        -1.8820339063     1.8577065288     0.1182713501
Bq        -1.8830958930     1.9881546798     0.3884234407
Bq        -1.8816799107     1.8142238118     0.0282206532
Bq        -1.8834498886     2.0316373968     0.4784741376
Bq        -1.8813259152     1.7707410947    -0.0618300437
Bq        -1.8838038842     2.0751201138     0.5685248345
Bq        -1.8809719196     1.7272583777    -0.1518807406
Bq        -1.8841578798     2.1186028308     0.6585755314
Bq        -1.8806179240     1.6837756607    -0.2419314375
Bq        -1.8823879019     1.9011892458     0.2083220469
Bq        -1.8825709652     2.0347233554     0.2548903628
Bq        -1.8818629740     1.9477579214     0.0747889690
Bq        -1.8829249608     2.0782060724     0.3449410597
Bq        -1.8815089785     1.9042752044    -0.0152617279
Bq        -1.8832789563     2.1216887894     0.4349917566
Bq        -1.8811549829     1.8607924874    -0.1053124247
Bq        -1.8836329519     2.1651715065     0.5250424534
Bq        -1.8808009873     1.8173097704    -0.1953631216
Bq        -1.8839869475     2.2086542235     0.6150931503
Bq        -1.8804469917     1.7738270534    -0.2854138185
Bq        -1.8822169696     1.9912406384     0.1648396659
Bq        -1.8824000329     2.1247747481     0.2114079818
Bq        -1.8816920418     2.0378093141     0.0313065880
Bq        -1.8827540285     2.1682574651     0.3014586786
Bq        -1.8813380462     1.9943265971    -0.0587441089
Bq        -1.8831080241     2.2117401821     0.3915093755
Bq        -1.8809840506     1.9508438801    -0.1487948058
Bq        -1.8834620196     2.2552228991     0.4815600724
Bq        -1.8806300550     1.9073611631    -0.2388455027
Bq        -1.8838160152     2.2987056161     0.5716107693
Bq        -1.8802760595     1.8638784461    -0.3288961995
Bq        -1.8820460373     2.0812920311     0.1213572849
Bq        -1.8822291006     2.2148261408     0.1679256007
Bq        -1.8815211095     2.1278607068    -0.0121757930
Bq        -1.8825830962     2.2583088578     0.2579762976
Bq        -1.8811671139     2.0843779898    -0.1022264899
Bq        -1.8829370918     2.3017915748     0.3480269945
Bq        -1.8808131183     2.0408952728    -0.1922771868
Bq        -1.8832910874     2.3452742918     0.4380776914
Bq        -1.8804591228     1.9974125558    -0.2823278837

1
2
3
4
5
6
7
8
9
10
11
12
13
14
15
16
17
18
19
20
21
22
23
24
25
26
27
28
29
30
31
32
33
34
35
36
37
38
39
40
41
42
43
44
45
46
47
48
49
50
51
52
53
54
55
56
57
58
59
60
61
62
63
64
65
66
67
68
69
70
71
72
73
74
75
76
77
78
79
80
81
82
83
84
85
86
87
88
89
90
91
92
93
94
95
96
97
98
99
100
101
102
103
104
105
106
107
108
109
110
111
112
113
114
115
116
117
118
119
120
121
122
123
124
125
126
127
128
129
130
131
132
133
134
135
136
137
138
139
140
141
142
143
144
145
146
147
148
149
150
151
152
153
154
155
156
157
158
159
160
161
162
163
164
165
166
167
168
169
170
171
172
173
174
175
176
177
178
179
180
181
182
183
184
185
186
187
188
189
190
191
192
193
194
195
196
197
198
199
200
201
202
203
204
205
206
207
208
209
210
211
212
213
214
215
216
217
218
219
220
221
222
223
224
225
226
227
228
229
230
231
232
233
234
235
236

