%nproc=8
%mem=1000MB
# rb3lyp/6-311+g** NMR geom=connectivity

Title

0 1
C    -4.0500558   -0.5771862    0.8136712
H    -5.0263804   -1.0082727    1.0024760
C    -3.9381552    0.6617804    0.2400876
H    -4.8252424    1.2338890   -0.0111295
C    -2.6768410    1.2433246    0.0057578
C    -1.4974121    0.5051527    0.2848253
C    -1.6508332   -0.7338728    0.9404026
H    -0.7713646   -1.2730967    1.2633753
C    -2.8898548   -1.2624035    1.1994307
H    -2.9683706   -2.2124563    1.7152676
C    -2.5773185    2.5963696   -0.4192930
H    -3.4870728    3.1412239   -0.6474055
C    -1.3741895    3.2147896   -0.4364030
H    -1.2997315    4.2742019   -0.6578144
C    -0.1719488    2.4994090   -0.1734588
C    -0.2043917    1.1018437    0.0192689
C     1.0513491    3.2042560   -0.0676222
H     1.0427344    4.2819499   -0.1896997
C     2.1942091    2.5487446    0.2579577
H     3.1168527    3.0912848    0.4334727
C     2.2216473    1.1336562    0.2934990
C     1.0486931    0.3945528    0.0302412
C     3.4483363    0.4614633    0.5573939
H     4.3095794    1.0606054    0.8334846
C     3.5427346   -0.8855926    0.4749463
H     4.4731467   -1.3939704    0.7038822
C     2.4490052   -1.6474447   -0.0196319
C     1.2150704   -1.0057258   -0.3013573
C     0.2531113   -1.7434440   -1.0216591
H    -0.6541356   -1.2535051   -1.3462847
C     0.4494193   -3.0628597   -1.3413779
H    -0.3083162   -3.5944309   -1.9054060
C     1.6251726   -3.7207967   -0.9552541
H     1.7670048   -4.7687404   -1.1927019
C     2.6109872   -3.0144177   -0.3183050
H     3.5525612   -3.4902813   -0.0646367
Bq         4.0553165857     0.5893685501     1.8106567541
Bq         4.3121052290     0.7316451404     0.8547190132
Bq         4.1837109073     0.6605068452     1.3326878836
Bq         4.1543409925     0.7452618802     1.4420221973
Bq         4.2056987211     0.7737171983     1.2508346491
Bq         4.1286621282     0.7310342212     1.5376159714
Bq         4.2313775855     0.7879448573     1.1552408750
Bq         4.1029832638     0.7168065622     1.6332097455
Bq         4.2570564498     0.8021725163     1.0596471009
Bq         4.0773043995     0.7025789031     1.7288035196
Bq         4.2827353141     0.8164001754     0.9640533268
Bq         4.0516255352     0.6883512441     1.8243972937
Bq         4.3084141784     0.8306278344     0.8684595527
Bq         4.1800198568     0.7594895393     1.3464284232
Bq         4.1506499420     0.8442445743     1.4557627368
Bq         4.2020076706     0.8726998923     1.2645751887
Bq         4.1249710776     0.8300169152     1.5513565109
Bq         4.2276865349     0.8869275513     1.1689814146
Bq         4.0992922133     0.8157892562     1.6469502850
Bq         4.2533653992     0.9011552104     1.0733876405
Bq         4.0736133490     0.8015615972     1.7425440591
Bq         4.2790442636     0.9153828694     0.9777938664
Bq         4.0479344847     0.7873339381     1.8381378332
Bq         4.3047231279     0.9296105284     0.8822000923
Bq         4.1763288063     0.8584722333     1.3601689627
Bq         4.1469588914     0.9432272683     1.4695032764
Bq         4.1983166201     0.9716825864     1.2783157282
Bq         4.1212800271     0.9289996093     1.5650970505
Bq         4.2239954844     0.9859102454     1.1827219541
Bq         4.0956011628     0.9147719502     1.6606908246
Bq         4.2496743487     1.0001379044     1.0871281800
Bq         4.0699222984     0.9005442912     1.7562845987
Bq         4.2753532130     1.0143655634     0.9915344059
Bq         4.0442434341     0.8863166322     1.8518783728
Bq         4.3010320774     1.0285932225     0.8959406318
Bq         4.1726377557     0.9574549273     1.3739095023
Bq         4.1432678409     1.0422099623     1.4832438160
Bq         4.1946255695     1.0706652804     1.2920562678
Bq         4.1175889766     1.0279823033     1.5788375901
Bq         4.2203044338     1.0848929394     1.1964624937
Bq         4.0919101122     1.0137546443     1.6744313642
Bq         4.2459832982     1.0991205984     1.1008687196
Bq         4.0662312479     0.9995269852     1.7700251382
Bq         4.2716621625     1.1133482575     1.0052749455
Bq         4.0405523836     0.9852993262     1.8656189123
Bq         4.2973410268     1.1275759165     0.9096811714
Bq         4.1689467052     1.0564376214     1.3876500419
Bq         4.1395767903     1.1411926564     1.4969843555
Bq         4.1909345190     1.1696479744     1.3057968073
Bq         4.1138979260     1.1269649973     1.5925781296
Bq         4.2166133833     1.1838756335     1.2102030332
Bq         4.0882190617     1.1127373383     1.6881719037
Bq         4.2422922476     1.1981032925     1.1146092591
Bq         4.0625401974     1.0985096793     1.7837656778
Bq         4.2679711120     1.2123309515     1.0190154850
Bq         4.0368613331     1.0842820203     1.8793594519
Bq         4.2936499763     1.2265586105     0.9234217110
Bq         4.1652556547     1.1554203154     1.4013905814
Bq         4.1358857398     1.2401753504     1.5107248951
Bq         4.1872434685     1.2686306685     1.3195373469
Bq         4.1102068755     1.2259476914     1.6063186692
Bq         4.2129223328     1.2828583275     1.2239435728
Bq         4.0845280112     1.2117200323     1.7019124433
Bq         4.2386011971     1.2970859865     1.1283497987
Bq         4.0588491468     1.1974923733     1.7975062174
Bq         4.2642800614     1.3113136455     1.0327560246
Bq         4.0331702825     1.1832647143     1.8930999915
Bq         4.2899589257     1.3255413046     0.9371622505
Bq         4.1615646041     1.2544030094     1.4151311210
Bq         4.1321946893     1.3391580444     1.5244654346
Bq         4.1835524179     1.3676133625     1.3332778864
Bq         4.1065158250     1.3249303854     1.6200592087
Bq         4.2092312822     1.3818410215     1.2376841124
Bq         4.0808369606     1.3107027264     1.7156529828
Bq         4.2349101466     1.3960686806     1.1420903383
Bq         4.0551580963     1.2964750674     1.8112467569
Bq         4.2605890109     1.4102963396     1.0464965642
Bq         4.0294792320     1.2822474083     1.9068405310
Bq         4.2862678752     1.4245239986     0.9509027901
Bq         4.1578735536     1.3533857035     1.4288716605
Bq         4.1285036387     1.4381407385     1.5382059742
Bq         4.1798613674     1.4665960565     1.3470184260
Bq         4.1028247744     1.4239130794     1.6337997483
Bq         4.2055402317     1.4808237156     1.2514246519
Bq         4.0771459101     1.4096854204     1.7293935224
Bq         4.2312190960     1.4950513746     1.1558308778
Bq         4.0514670458     1.3954577614     1.8249872965
Bq         4.2568979604     1.5092790336     1.0602371037
Bq         4.0257881814     1.3812301024     1.9205810706
Bq         4.2825768247     1.5235066926     0.9646433296
Bq         4.1541825031     1.4523683975     1.4426122001
Bq         4.1248125882     1.5371234325     1.5519465138
Bq         4.1761703168     1.5655787506     1.3607589656
Bq         4.0991337239     1.5228957735     1.6475402879
Bq         4.2018491812     1.5798064096     1.2651651915
Bq         4.0734548596     1.5086681145     1.7431340619
Bq         4.2275280455     1.5940340686     1.1695714174
Bq         4.0477759952     1.4944404554     1.8387278360
Bq         4.2532069098     1.6082617277     1.0739776433
Bq         4.0220971309     1.4802127964     1.9343216101
Bq         4.2788857741     1.6224893867     0.9783838692
Bq         4.1504914525     1.5513510915     1.4563527397
Bq         4.1211215377     1.6361061265     1.5656870533
Bq         4.1724792663     1.6645614446     1.3744995051
Bq         4.0954426733     1.6218784675     1.6612808274
Bq         4.1981581306     1.6787891036     1.2789057310
Bq         4.0697638090     1.6076508085     1.7568746015
Bq         4.2238369950     1.6930167627     1.1833119569
Bq         4.0440849447     1.5934231495     1.8524683756
Bq         4.2495158593     1.7072444217     1.0877181828
Bq         4.0184060804     1.5791954904     1.9480621497
Bq         4.2751947236     1.7214720807     0.9921244087
Bq         4.1468004020     1.6503337856     1.4700932792
Bq         4.1174304871     1.7350888206     1.5794275929
Bq         4.1687882158     1.7635441386     1.3882400447
Bq         4.0917516228     1.7208611616     1.6750213670
Bq         4.1944670801     1.7777717977     1.2926462706
Bq         4.0660727585     1.7066335025     1.7706151411
Bq         4.2201459444     1.7919994567     1.1970524965
Bq         4.0403938942     1.6924058435     1.8662089152
Bq         4.2458248087     1.8062271157     1.1014587224
Bq         4.0147150298     1.6781781845     1.9618026893
Bq         4.2715036731     1.8204547748     1.0058649483
Bq         4.1431093515     1.7493164796     1.4838338188
Bq         4.1137394366     1.8340715146     1.5931681324
Bq         4.1650971652     1.8625268327     1.4019805842
Bq         4.0880605723     1.8198438556     1.6887619065
Bq         4.1907760296     1.8767544917     1.3063868101
Bq         4.0623817080     1.8056161966     1.7843556806
Bq         4.2164548939     1.8909821507     1.2107930361
Bq         4.0367028436     1.7913885375     1.8799494547
Bq         4.2421337582     1.9052098098     1.1151992620
Bq         4.0110239793     1.7771608785     1.9755432288
Bq         4.2678126225     1.9194374688     1.0196054879
Bq         4.1394183009     1.8482991736     1.4975743583
Bq         4.1100483861     1.9330542087     1.6069086720
Bq         4.1614061147     1.9615095267     1.4157211238
Bq         4.0843695217     1.9188265496     1.7025024461
Bq         4.1870849790     1.9757371857     1.3201273497
Bq         4.0586906574     1.9045988906     1.7980962202
Bq         4.2127638434     1.9899648448     1.2245335756
Bq         4.0330117931     1.8903712316     1.8936899943
Bq         4.2384427077     2.0041925038     1.1289398015
Bq         4.0073329288     1.8761435725     1.9892837684
Bq         4.2641215720     2.0184201628     1.0333460274
Bq         4.1357272504     1.9472818677     1.5113148979
Bq         4.1063573355     2.0320369027     1.6206492116
Bq         4.1577150642     2.0604922207     1.4294616634
Bq         4.0806784712     2.0178092437     1.7162429856
Bq         4.1833939285     2.0747198798     1.3338678893
Bq         4.0549996069     2.0035815846     1.8118367597
Bq         4.2090727928     2.0889475388     1.2382741152
Bq         4.0293207426     1.9893539256     1.9074305338
Bq         4.2347516571     2.1031751978     1.1426803411
Bq         4.0036418782     1.9751262666     2.0030243079
Bq         4.2604305215     2.1174028569     1.0470865670
Bq         4.1320361998     2.0462645617     1.5250554375
Bq         4.1026662850     2.1310195967     1.6343897511
Bq         4.1540240136     2.1594749148     1.4432022029
Bq         4.0769874207     2.1167919377     1.7299835252
Bq         4.1797028780     2.1737025738     1.3476084288
Bq         4.0513085563     2.1025642787     1.8255772993
Bq         4.2053817423     2.1879302328     1.2520146547
Bq         4.0256296920     2.0883366196     1.9211710734
Bq         4.2310606066     2.2021578919     1.1564208806
Bq         3.9999508277     2.0741089606     2.0167648475
Bq         4.2567394709     2.2163855509     1.0608271065
Bq         4.1283451493     2.1452472558     1.5387959770
Bq         4.3837950618    -2.8181151051     0.9733055550
Bq         4.4351527905    -2.7896597870     0.7821180068
Bq         4.3581161975    -2.8323427641     1.0688993290
Bq         4.4608316548    -2.7754321280     0.6865242327
Bq         4.3324373332    -2.8465704231     1.1644931031
Bq         4.4865105191    -2.7612044690     0.5909304586
Bq         4.3067584688    -2.8607980821     1.2600868772
Bq         4.5121893834    -2.7469768099     0.4953366845
Bq         4.2810796045    -2.8750257412     1.3556806513
Bq         4.5378682477    -2.7327491509     0.3997429104
Bq         4.4094739261    -2.8038874460     0.8777117809
Bq         4.3801040113    -2.7191324110     0.9870460945
Bq         4.4314617399    -2.6906770930     0.7958585463
Bq         4.3544251469    -2.7333600701     1.0826398686
Bq         4.4571406042    -2.6764494339     0.7002647722
Bq         4.3287462826    -2.7475877291     1.1782336427
Bq         4.4828194686    -2.6622217749     0.6046709981
Bq         4.3030674183    -2.7618153881     1.2738274168
Bq         4.5084983329    -2.6479941159     0.5090772240
Bq         4.2773885540    -2.7760430471     1.3694211909
Bq         4.5341771972    -2.6337664569     0.4134834499
Bq         4.4057828756    -2.7049047520     0.8914523204
Bq         4.3764129607    -2.6201497170     1.0007866341
Bq         4.4277706894    -2.5916943989     0.8095990859
Bq         4.3507340964    -2.6343773760     1.0963804082
Bq         4.4534495537    -2.5774667399     0.7140053118
Bq         4.3250552321    -2.6486050350     1.1919741823
Bq         4.4791284180    -2.5632390809     0.6184115377
Bq         4.2993763678    -2.6628326941     1.2875679564
Bq         4.5048072823    -2.5490114219     0.5228177636
Bq         4.2736975034    -2.6770603531     1.3831617305
Bq         4.5304861467    -2.5347837628     0.4272239895

1
2
3
4
5
6
7
8
9
10
11
12
13
14
15
16
17
18
19
20
21
22
23
24
25
26
27
28
29
30
31
32
33
34
35
36
37
38
39
40
41
42
43
44
45
46
47
48
49
50
51
52
53
54
55
56
57
58
59
60
61
62
63
64
65
66
67
68
69
70
71
72
73
74
75
76
77
78
79
80
81
82
83
84
85
86
87
88
89
90
91
92
93
94
95
96
97
98
99
100
101
102
103
104
105
106
107
108
109
110
111
112
113
114
115
116
117
118
119
120
121
122
123
124
125
126
127
128
129
130
131
132
133
134
135
136
137
138
139
140
141
142
143
144
145
146
147
148
149
150
151
152
153
154
155
156
157
158
159
160
161
162
163
164
165
166
167
168
169
170
171
172
173
174
175
176
177
178
179
180
181
182
183
184
185
186
187
188
189
190
191
192
193
194
195
196
197
198
199
200
201
202
203
204
205
206
207
208
209
210
211
212
213
214
215
216
217
218
219
220
221
222
223
224
225
226
227
228
229
230
231
232
233
234
235
236

