%nproc=8
%mem=1000MB
# rb3lyp/6-311+g** NMR geom=connectivity

Title

0 1
C    -4.0500558   -0.5771862    0.8136712
H    -5.0263804   -1.0082727    1.0024760
C    -3.9381552    0.6617804    0.2400876
H    -4.8252424    1.2338890   -0.0111295
C    -2.6768410    1.2433246    0.0057578
C    -1.4974121    0.5051527    0.2848253
C    -1.6508332   -0.7338728    0.9404026
H    -0.7713646   -1.2730967    1.2633753
C    -2.8898548   -1.2624035    1.1994307
H    -2.9683706   -2.2124563    1.7152676
C    -2.5773185    2.5963696   -0.4192930
H    -3.4870728    3.1412239   -0.6474055
C    -1.3741895    3.2147896   -0.4364030
H    -1.2997315    4.2742019   -0.6578144
C    -0.1719488    2.4994090   -0.1734588
C    -0.2043917    1.1018437    0.0192689
C     1.0513491    3.2042560   -0.0676222
H     1.0427344    4.2819499   -0.1896997
C     2.1942091    2.5487446    0.2579577
H     3.1168527    3.0912848    0.4334727
C     2.2216473    1.1336562    0.2934990
C     1.0486931    0.3945528    0.0302412
C     3.4483363    0.4614633    0.5573939
H     4.3095794    1.0606054    0.8334846
C     3.5427346   -0.8855926    0.4749463
H     4.4731467   -1.3939704    0.7038822
C     2.4490052   -1.6474447   -0.0196319
C     1.2150704   -1.0057258   -0.3013573
C     0.2531113   -1.7434440   -1.0216591
H    -0.6541356   -1.2535051   -1.3462847
C     0.4494193   -3.0628597   -1.3413779
H    -0.3083162   -3.5944309   -1.9054060
C     1.6251726   -3.7207967   -0.9552541
H     1.7670048   -4.7687404   -1.1927019
C     2.6109872   -3.0144177   -0.3183050
H     3.5525612   -3.4902813   -0.0646367
Bq        -5.2830210986     1.0938126704     0.3627141674
Bq        -5.2847910765     1.3112262554     0.8129676518
Bq        -5.2826671030     1.0503299534     0.2726634705
Bq        -5.2851450721     1.3547089724     0.9030183487
Bq        -5.2823131075     1.0068472364     0.1826127736
Bq        -5.2854990676     1.3981916894     0.9930690456
Bq        -5.2819591119     0.9633645194     0.0925620768
Bq        -5.2837290898     1.1807781044     0.5428155612
Bq        -5.2839121531     1.3143122141     0.5893838770
Bq        -5.2832041619     1.2273467801     0.4092824833
Bq        -5.2842661486     1.3577949311     0.6794345739
Bq        -5.2828501663     1.1838640631     0.3192317864
Bq        -5.2846201442     1.4012776481     0.7694852708
Bq        -5.2824961708     1.1403813461     0.2291810895
Bq        -5.2849741398     1.4447603651     0.8595359677
Bq        -5.2821421752     1.0968986291     0.1391303926
Bq        -5.2853281354     1.4882430821     0.9495866645
Bq        -5.2817881796     1.0534159120     0.0490796957
Bq        -5.2835581575     1.2708294971     0.4993331801
Bq        -5.2837412208     1.4043636067     0.5459014960
Bq        -5.2830332296     1.3173981727     0.3658001022
Bq        -5.2840952164     1.4478463237     0.6359521929
Bq        -5.2826792341     1.2739154557     0.2757494053
Bq        -5.2844492119     1.4913290408     0.7260028898
Bq        -5.2823252385     1.2304327387     0.1856987085
Bq        -5.2848032075     1.5348117578     0.8160535866
Bq        -5.2819712429     1.1869500217     0.0956480116
Bq        -5.2851572031     1.5782944748     0.9061042835
Bq        -5.2816172473     1.1434673047     0.0055973147
Bq        -5.2833872252     1.3608808897     0.4558507991
Bq        -5.2835702885     1.4944149994     0.5024191150
Bq        -5.2828622974     1.4074495654     0.3223177212
Bq        -5.2839242841     1.5378977164     0.5924698118
Bq        -5.2825083018     1.3639668484     0.2322670243
Bq        -5.2842782797     1.5813804334     0.6825205087
Bq        -5.2821543062     1.3204841314     0.1422163274
Bq        -5.2846322752     1.6248631504     0.7725712056
Bq        -5.2818003106     1.2770014144     0.0521656305
Bq        -5.2849862708     1.6683458674     0.8626219025
Bq        -5.2814463151     1.2335186974    -0.0378850663
Bq        -5.2832162929     1.4509322824     0.4123684181
Bq        -5.2833993562     1.5844663921     0.4589367339
Bq        -5.2826913651     1.4975009581     0.2788353402
Bq        -5.2837533518     1.6279491091     0.5489874308
Bq        -5.2823373695     1.4540182411     0.1887846433
Bq        -5.2841073474     1.6714318261     0.6390381277
Bq        -5.2819833739     1.4105355241     0.0987339464
Bq        -5.2844613430     1.7149145431     0.7290888246
Bq        -5.2816293784     1.3670528071     0.0086832495
Bq        -5.2848153385     1.7583972601     0.8191395215
Bq        -5.2812753828     1.3235700901    -0.0813674474
Bq        -5.2830453607     1.5409836751     0.3688860370
Bq        -5.2832284240     1.6745177848     0.4154543529
Bq        -5.2825204328     1.5875523507     0.2353529591
Bq        -5.2835824195     1.7180005018     0.5055050498
Bq        -5.2821664372     1.5440696337     0.1453022622
Bq        -5.2839364151     1.7614832188     0.5955557467
Bq        -5.2818124417     1.5005869167     0.0552515654
Bq        -5.2842904107     1.8049659358     0.6856064435
Bq        -5.2814584461     1.4571041997    -0.0347991315
Bq        -5.2846444063     1.8484486528     0.7756571404
Bq        -5.2811044505     1.4136214827    -0.1248498284
Bq        -5.2828744284     1.6310350678     0.3254036560
Bq        -5.2830574917     1.7645691774     0.3719719719
Bq        -5.2823495005     1.6776037434     0.1918705781
Bq        -5.2834114873     1.8080518944     0.4620226687
Bq        -5.2819955050     1.6341210264     0.1018198812
Bq        -5.2837654828     1.8515346114     0.5520733656
Bq        -5.2816415094     1.5906383094     0.0117691843
Bq        -5.2841194784     1.8950173284     0.6421240625
Bq        -5.2812875138     1.5471555924    -0.0782815126
Bq        -5.2844734740     1.9385000454     0.7321747594
Bq        -5.2809335182     1.5036728754    -0.1683322094
Bq        -5.2827034961     1.7210864604     0.2819212750
Bq        -5.2828865594     1.8546205701     0.3284895908
Bq        -5.2821785683     1.7676551361     0.1483881971
Bq        -5.2832405550     1.8981032871     0.4185402877
Bq        -5.2818245727     1.7241724191     0.0583375002
Bq        -5.2835945506     1.9415860041     0.5085909846
Bq        -5.2814705771     1.6806897021    -0.0317131967
Bq        -5.2839485461     1.9850687211     0.5986416815
Bq        -5.2811165815     1.6372069851    -0.1217638936
Bq        -5.2843025417     2.0285514381     0.6886923784
Bq        -5.2807625860     1.5937242681    -0.2118145905
Bq        -5.2825325638     1.8111378531     0.2384388939
Bq        -5.2827156271     1.9446719628     0.2850072098
Bq        -5.2820076360     1.8577065288     0.1049058160
Bq        -5.2830696227     1.9881546798     0.3750579067
Bq        -5.2816536404     1.8142238118     0.0148551191
Bq        -5.2834236183     2.0316373968     0.4651086036
Bq        -5.2812996448     1.7707410947    -0.0751955777
Bq        -5.2837776139     2.0751201138     0.5551593004
Bq        -5.2809456493     1.7272583777    -0.1652462746
Bq        -5.2841316094     2.1186028308     0.6452099973
Bq        -5.2805916537     1.6837756607    -0.2552969715
Bq        -5.2823616316     1.9011892458     0.1949565129
Bq        -5.2825446949     2.0347233554     0.2415248288
Bq        -5.2818367037     1.9477579214     0.0614234350
Bq        -5.2828986904     2.0782060724     0.3315755256
Bq        -5.2814827081     1.9042752044    -0.0286272619
Bq        -5.2832526860     2.1216887894     0.4216262225
Bq        -5.2811287126     1.8607924874    -0.1186779588
Bq        -5.2836066816     2.1651715065     0.5116769194
Bq        -5.2807747170     1.8173097704    -0.2087286557
Bq        -5.2839606772     2.2086542235     0.6017276163
Bq        -5.2804207214     1.7738270534    -0.2987793525
Bq        -5.2821906993     1.9912406384     0.1514741319
Bq        -5.2823737626     2.1247747481     0.1980424477
Bq        -5.2816657714     2.0378093141     0.0179410540
Bq        -5.2827277582     2.1682574651     0.2880931446
Bq        -5.2813117759     1.9943265971    -0.0721096429
Bq        -5.2830817537     2.2117401821     0.3781438415
Bq        -5.2809577803     1.9508438801    -0.1621603398
Bq        -5.2834357493     2.2552228991     0.4681945384
Bq        -5.2806037847     1.9073611631    -0.2522110367
Bq        -5.2837897449     2.2987056161     0.5582452353
Bq        -5.2802497892     1.8638784461    -0.3422617336
Bq        -5.2820197670     2.0812920311     0.1079917508
Bq        -5.2822028303     2.2148261408     0.1545600667
Bq        -5.2814948392     2.1278607068    -0.0255413271
Bq        -5.2825568259     2.2583088578     0.2446107636
Bq        -5.2811408436     2.0843779898    -0.1155920240
Bq        -5.2829108215     2.3017915748     0.3346614605
Bq        -5.2807868480     2.0408952728    -0.2056427208
Bq        -5.2832648170     2.3452742918     0.4247121573
Bq        -5.2804328525     1.9974125558    -0.2956934177
Bq        -5.2836188126     2.3887570088     0.5147628542
Bq        -5.2800788569     1.9539298388    -0.3857441146
Bq        -5.2818488347     2.1713434238     0.0645093698
Bq        -5.2820318980     2.3048775334     0.1110776857
Bq        -5.2813239069     2.2179120994    -0.0690237081
Bq        -5.2823858936     2.3483602505     0.2011283825
Bq        -5.2809699113     2.1744293824    -0.1590744050
Bq        -5.2827398892     2.3918429675     0.2911790794
Bq        -5.2806159158     2.1309466654    -0.2491251019
Bq        -5.2830938848     2.4353256845     0.3812297763
Bq        -5.2802619202     2.0874639484    -0.3391757988
Bq        -5.2834478803     2.4788084015     0.4712804732
Bq        -5.2799079246     2.0439812314    -0.4292264956
Bq        -5.2816779025     2.2613948164     0.0210269888
Bq        -5.2818609658     2.3949289261     0.0675953046
Bq        -5.2811529746     2.3079634921    -0.1125060891
Bq        -5.2822149613     2.4384116431     0.1576460015
Bq        -5.2807989791     2.2644807751    -0.2025567860
Bq        -5.2825689569     2.4818943601     0.2476966984
Bq        -5.2804449835     2.2209980581    -0.2926074829
Bq        -5.2829229525     2.5253770771     0.3377473953
Bq        -5.2800909879     2.1775153411    -0.3826581798
Bq        -5.2832769481     2.5688597941     0.4277980922
Bq        -5.2797369923     2.1340326241    -0.4727088767
Bq        -5.2815069702     2.3514462091    -0.0224553923
Bq        -5.2816900335     2.4849803188     0.0241129236
Bq        -5.2809820424     2.3980148848    -0.1559884702
Bq        -5.2820440291     2.5284630358     0.1141636205
Bq        -5.2806280468     2.3545321678    -0.2460391671
Bq        -5.2823980246     2.5719457528     0.2042143174
Bq        -5.2802740512     2.3110494508    -0.3360898639
Bq        -5.2827520202     2.6154284698     0.2942650142
Bq        -5.2799200556     2.2675667338    -0.4261405608
Bq        -5.2831060158     2.6589111868     0.3843157111
Bq        -5.2795660601     2.2240840168    -0.5161912577
Bq        -5.2813360379     2.4414976018    -0.0659377733
Bq        -5.1902374199    -2.0175893147     2.1986250792
Bq        -5.1895294287    -2.1045547487     2.0185236854
Bq        -5.1905914155    -1.9741065977     2.2886757760
Bq        -5.1891754332    -2.1480374658     1.9284729885
Bq        -5.1909454110    -1.9306238807     2.3787264729
Bq        -5.1888214376    -2.1915201828     1.8384222916
Bq        -5.1912994066    -1.8871411637     2.4687771698
Bq        -5.1884674420    -2.2350028998     1.7483715947
Bq        -5.1916534022    -1.8436584467     2.5588278667
Bq        -5.1881134464    -2.2784856168     1.6583208979
Bq        -5.1898834243    -2.0610720317     2.1085743823
Bq        -5.1900664876    -1.9275379221     2.1551426981
Bq        -5.1893584965    -2.0145033561     1.9750413044
Bq        -5.1904204832    -1.8840552051     2.2451933950
Bq        -5.1890045009    -2.0579860731     1.8849906075
Bq        -5.1907744788    -1.8405724881     2.3352440919
Bq        -5.1886505053    -2.1014687901     1.7949399106
Bq        -5.1911284743    -1.7970897711     2.4252947888
Bq        -5.1882965097    -2.1449515071     1.7048892137
Bq        -5.1914824699    -1.7536070540     2.5153454857
Bq        -5.1879425142    -2.1884342241     1.6148385168
Bq        -5.1897124920    -1.9710206391     2.0650920012
Bq        -5.1898955553    -1.8374865294     2.1116603171
Bq        -5.1891875642    -1.9244519634     1.9315589233
Bq        -5.1902495509    -1.7940038124     2.2017110140
Bq        -5.1888335686    -1.9679346804     1.8415082264
Bq        -5.1906035465    -1.7505210954     2.2917617109
Bq        -5.1884795730    -2.0114173974     1.7514575296
Bq        -5.1909575421    -1.7070383784     2.3818124077
Bq        -5.1881255775    -2.0549001144     1.6614068327
Bq        -5.1913115376    -1.6635556614     2.4718631046
Bq        -5.1877715819    -2.0983828314     1.5713561358
Bq        -5.1895415598    -1.8809692464     2.0216096202
Bq        -5.1897246231    -1.7474351367     2.0681779361
Bq        -5.1890166319    -1.8344005707     1.8880765423
Bq        -5.1900786186    -1.7039524197     2.1582286329
Bq        -5.1886626363    -1.8778832877     1.7980258454
Bq        -5.1904326142    -1.6604697027     2.2482793298

1
2
3
4
5
6
7
8
9
10
11
12
13
14
15
16
17
18
19
20
21
22
23
24
25
26
27
28
29
30
31
32
33
34
35
36
37
38
39
40
41
42
43
44
45
46
47
48
49
50
51
52
53
54
55
56
57
58
59
60
61
62
63
64
65
66
67
68
69
70
71
72
73
74
75
76
77
78
79
80
81
82
83
84
85
86
87
88
89
90
91
92
93
94
95
96
97
98
99
100
101
102
103
104
105
106
107
108
109
110
111
112
113
114
115
116
117
118
119
120
121
122
123
124
125
126
127
128
129
130
131
132
133
134
135
136
137
138
139
140
141
142
143
144
145
146
147
148
149
150
151
152
153
154
155
156
157
158
159
160
161
162
163
164
165
166
167
168
169
170
171
172
173
174
175
176
177
178
179
180
181
182
183
184
185
186
187
188
189
190
191
192
193
194
195
196
197
198
199
200
201
202
203
204
205
206
207
208
209
210
211
212
213
214
215
216
217
218
219
220
221
222
223
224
225
226
227
228
229
230
231
232
233
234
235
236

