%nproc=8
%mem=1000MB
# rb3lyp/6-311+g** NMR geom=connectivity

Title

0 1
C    -4.0500558   -0.5771862    0.8136712
H    -5.0263804   -1.0082727    1.0024760
C    -3.9381552    0.6617804    0.2400876
H    -4.8252424    1.2338890   -0.0111295
C    -2.6768410    1.2433246    0.0057578
C    -1.4974121    0.5051527    0.2848253
C    -1.6508332   -0.7338728    0.9404026
H    -0.7713646   -1.2730967    1.2633753
C    -2.8898548   -1.2624035    1.1994307
H    -2.9683706   -2.2124563    1.7152676
C    -2.5773185    2.5963696   -0.4192930
H    -3.4870728    3.1412239   -0.6474055
C    -1.3741895    3.2147896   -0.4364030
H    -1.2997315    4.2742019   -0.6578144
C    -0.1719488    2.4994090   -0.1734588
C    -0.2043917    1.1018437    0.0192689
C     1.0513491    3.2042560   -0.0676222
H     1.0427344    4.2819499   -0.1896997
C     2.1942091    2.5487446    0.2579577
H     3.1168527    3.0912848    0.4334727
C     2.2216473    1.1336562    0.2934990
C     1.0486931    0.3945528    0.0302412
C     3.4483363    0.4614633    0.5573939
H     4.3095794    1.0606054    0.8334846
C     3.5427346   -0.8855926    0.4749463
H     4.4731467   -1.3939704    0.7038822
C     2.4490052   -1.6474447   -0.0196319
C     1.2150704   -1.0057258   -0.3013573
C     0.2531113   -1.7434440   -1.0216591
H    -0.6541356   -1.2535051   -1.3462847
C     0.4494193   -3.0628597   -1.3413779
H    -0.3083162   -3.5944309   -1.9054060
C     1.6251726   -3.7207967   -0.9552541
H     1.7670048   -4.7687404   -1.1927019
C     2.6109872   -3.0144177   -0.3183050
H     3.5525612   -3.4902813   -0.0646367
Bq         1.2079895656    -1.9370478220    -0.4042552359
Bq         0.9289572191    -2.1233573797     0.2100978371
Bq         1.2478513294    -1.9104321709    -0.4920199606
Bq         0.8890954553    -2.1499730308     0.2978625618
Bq         1.2877130932    -1.8838165198    -0.5797846853
Bq         1.0884042742    -2.0168947753    -0.1409610618
Bq         1.0375360371    -1.9471174437    -0.0289630866
Bq         1.1172595646    -1.8938861415    -0.2044925360
Bq         0.9976742733    -1.9737330948     0.0588016381
Bq         1.1571213284    -1.8672704904    -0.2922572607
Bq         0.9578125095    -2.0003487459     0.1465663628
Bq         1.1969830922    -1.8406548393    -0.3800219855
Bq         0.9179507457    -2.0269643970     0.2343310875
Bq         1.2368448560    -1.8140391882    -0.4677867102
Bq         0.8780889819    -2.0535800481     0.3220958122
Bq         1.2767066198    -1.7874235371    -0.5555514349
Bq         1.0773978008    -1.9205017926    -0.1167278113
Bq         1.0265295637    -1.8507244610    -0.0047298361
Bq         1.1062530913    -1.7974931588    -0.1802592856
Bq         0.9866677999    -1.8773401121     0.0830348886
Bq         1.1461148551    -1.7708775077    -0.2680240103
Bq         0.9468060361    -1.9039557632     0.1707996133
Bq         1.1859766188    -1.7442618566    -0.3557887350
Bq         0.9069442723    -1.9305714143     0.2585643380
Bq         1.2258383826    -1.7176462055    -0.4435534597
Bq         0.8670825085    -1.9571870654     0.3463290627
Bq         1.2657001464    -1.6910305543    -0.5313181844
Bq         1.0663913275    -1.8241088099    -0.0924945609
Bq         1.0155230903    -1.7543314783     0.0195034143
Bq         1.0952466179    -1.7011001761    -0.1560260351
Bq         0.9756613265    -1.7809471294     0.1072681390
Bq         1.1351083817    -1.6744845250    -0.2437907598
Bq         0.9357995627    -1.8075627805     0.1950328637
Bq         1.1749701455    -1.6478688739    -0.3315554845
Bq         0.8959377990    -1.8341784316     0.2827975885
Bq         1.2148319093    -1.6212532227    -0.4193202093
Bq         0.8560760352    -1.8607940827     0.3705623132
Bq         1.2546936730    -1.5946375716    -0.5070849340
Bq         1.0553848541    -1.7277158272    -0.0682613104
Bq         1.0045166169    -1.6579384956     0.0437366648
Bq         1.0842401445    -1.6047071934    -0.1317927847
Bq         0.9646548532    -1.6845541467     0.1315013895
Bq         1.1241019083    -1.5780915422    -0.2195575094
Bq         0.9247930894    -1.7111697978     0.2192661142
Bq         1.1639636721    -1.5514758911    -0.3073222341
Bq         0.8849313256    -1.7377854489     0.3070308389
Bq         1.2038254359    -1.5248602400    -0.3950869588
Bq         0.8450695618    -1.7644011000     0.3947955636
Bq         1.2436871997    -1.4982445889    -0.4828516835
Bq         1.0443783807    -1.6313228445    -0.0440280599
Bq         0.9935101436    -1.5615455129     0.0679699152
Bq         1.0732336711    -1.5083142106    -0.1075595342
Bq         0.9536483798    -1.5881611640     0.1557346399
Bq         1.1130954349    -1.4816985595    -0.1953242589
Bq         0.9137866160    -1.6147768151     0.2434993647
Bq         1.1529571987    -1.4550829084    -0.2830889836
Bq         0.8739248522    -1.6413924662     0.3312640894
Bq         1.1928189625    -1.4284672573    -0.3708537083
Bq         0.8340630884    -1.6680081173     0.4190288141
Bq         1.2326807263    -1.4018516062    -0.4586184330
Bq         1.0333719074    -1.5349298617    -0.0197948095
Bq         0.9825036702    -1.4651525301     0.0922031657
Bq         1.0622271978    -1.4119212279    -0.0833262837
Bq         0.9426419064    -1.4917681812     0.1799678904
Bq         1.1020889616    -1.3853055768    -0.1710910085
Bq         0.9027801426    -1.5183838324     0.2677326151
Bq         1.1419507254    -1.3586899257    -0.2588557332
Bq         0.8629183788    -1.5449994835     0.3554973398
Bq         1.1818124891    -1.3320742746    -0.3466204579
Bq         0.8230566151    -1.5716151346     0.4432620645
Bq         1.2216742529    -1.3054586235    -0.4343851826
Bq         1.0223654340    -1.4385368790     0.0044384410
Bq         0.9714971968    -1.3687595474     0.1164364161
Bq         1.0512207244    -1.3155282452    -0.0590930333
Bq         0.9316354330    -1.3953751985     0.2042011409
Bq         1.0910824882    -1.2889125941    -0.1468577580
Bq         0.8917736693    -1.4219908496     0.2919658656
Bq         1.1309442520    -1.2622969430    -0.2346224827
Bq         0.8519119055    -1.4486065008     0.3797305903
Bq         1.1708060158    -1.2356812919    -0.3223872074
Bq         0.8120501417    -1.4752221519     0.4674953150
Bq         1.2106677796    -1.2090656408    -0.4101519321
Bq         1.0113589606    -1.3421438963     0.0286716914
Bq         0.9604907235    -1.2723665647     0.1406696666
Bq         1.0402142510    -1.2191352625    -0.0348597828
Bq         0.9206289597    -1.2989822158     0.2284343913
Bq         1.0800760148    -1.1925196114    -0.1226245075
Bq         0.8807671959    -1.3255978669     0.3161991160
Bq         1.1199377786    -1.1659039603    -0.2103892322
Bq         0.8409054321    -1.3522135180     0.4039638407
Bq         1.1597995424    -1.1392883092    -0.2981539570
Bq         0.8010436683    -1.3788291691     0.4917285655
Bq         1.1996613062    -1.1126726581    -0.3859186817
Bq         1.0003524872    -1.2457509136     0.0529049419
Bq         0.9494842501    -1.1759735820     0.1649029171
Bq         1.0292077777    -1.1227422798    -0.0106265324
Bq         0.9096224863    -1.2025892331     0.2526676418
Bq         1.0690695414    -1.0961266287    -0.0983912571
Bq         0.8697607225    -1.2292048842     0.3404323665
Bq         1.1089313052    -1.0695109776    -0.1861559818
Bq         0.8298989587    -1.2558205353     0.4281970912
Bq         1.1487930690    -1.0428953265    -0.2739207065
Bq         0.7900371949    -1.2824361864     0.5159618159
Bq         1.1886548328    -1.0162796754    -0.3616854312
Bq         0.9893460139    -1.1493579309     0.0771381923
Bq         0.9384777767    -1.0795805993     0.1891361675
Bq         1.0182013043    -1.0263492971     0.0136067181
Bq         0.8986160129    -1.1061962504     0.2769008922
Bq         1.0580630681    -0.9997336460    -0.0741580066
Bq         0.8587542491    -1.1328119015     0.3646656169
Bq         1.0979248319    -0.9731179949    -0.1619227313
Bq         0.8188924854    -1.1594275526     0.4524303417
Bq         1.1377865957    -0.9465023438    -0.2496874560
Bq         0.7790307216    -1.1860432037     0.5401950664
Bq         1.1776483594    -0.9198866927    -0.3374521808
Bq         0.9783395405    -1.0529649482     0.1013714428
Bq         0.9274713033    -0.9831876166     0.2133694180
Bq         1.0071948309    -0.9299563144     0.0378399686
Bq         0.8876095396    -1.0098032677     0.3011341427
Bq         1.0470565947    -0.9033406633    -0.0499247562
Bq         0.8477477758    -1.0364189188     0.3888988674
Bq         1.0869183585    -0.8767250122    -0.1376894809
Bq         0.8078860120    -1.0630345699     0.4766635921
Bq         1.1267801223    -0.8501093610    -0.2254542056
Bq         0.7680242482    -1.0896502210     0.5644283168
Bq         1.1666418861    -0.8234937099    -0.3132189303
Bq         0.9673330671    -0.9565719655     0.1256046933
Bq         0.9164648300    -0.8867946339     0.2376026684
Bq         0.9961883575    -0.8335633317     0.0620732190
Bq         0.8766030662    -0.9134102850     0.3253673931
Bq         1.0360501213    -0.8069476805    -0.0256915057
Bq         0.8367413024    -0.9400259361     0.4131321179
Bq         1.0759118851    -0.7803320294    -0.1134562304
Bq         0.7968795386    -0.9666415872     0.5008968426
Bq         1.1157736489    -0.7537163783    -0.2012209551
Bq         0.7570177748    -0.9932572383     0.5886615673
Bq         1.1556354127    -0.7271007272    -0.2889856798
Bq         0.9563265938    -0.8601789828     0.1498379437
Bq         0.9054583566    -0.7904016512     0.2618359189
Bq         0.9851818842    -0.7371703489     0.0863064695
Bq         0.8655965928    -0.8170173023     0.3496006436
Bq         1.0250436480    -0.7105546978    -0.0014582552
Bq         0.8257348290    -0.8436329534     0.4373653683
Bq         1.0649054117    -0.6839390467    -0.0892229800
Bq         0.7858730652    -0.8702486045     0.5251300930
Bq         1.1047671755    -0.6573233956    -0.1769877047
Bq         0.7460113014    -0.8968642556     0.6128948177
Bq         1.1446289393    -0.6307077445    -0.2647524294
Bq         0.9453201204    -0.7637860000     0.1740711942
Bq         0.8944518832    -0.6940086684     0.2860691694
Bq         0.9741754108    -0.6407773662     0.1105397199
Bq         0.8545901194    -0.7206243196     0.3738338941
Bq         1.0140371746    -0.6141617151     0.0227749952
Bq         0.8147283556    -0.7472399707     0.4615986188
Bq         1.0538989384    -0.5875460640    -0.0649897295
Bq         0.7748665919    -0.7738556218     0.5493633435
Bq         1.0937607022    -0.5609304129    -0.1527544542
Bq         0.7350048281    -0.8004712729     0.6371280682
Bq         1.1336224659    -0.5343147618    -0.2405191789
Bq         0.9343136470    -0.6673930173     0.1983044446
Bq         0.8834454099    -0.5976156857     0.3103024198
Bq         0.9631689374    -0.5443843835     0.1347729704
Bq         0.8435836461    -0.6242313368     0.3980671445
Bq         1.0030307012    -0.5177687324     0.0470082457
Bq         0.8037218823    -0.6508469879     0.4858318692
Bq         1.0428924650    -0.4911530813    -0.0407564790
Bq         0.7638601185    -0.6774626391     0.5735965939
Bq         1.0827542288    -0.4645374302    -0.1285212038
Bq         0.7239983547    -0.7040782902     0.6613613187
Bq         1.1226159926    -0.4379217791    -0.2162859285
Bq         0.9233071736    -0.5710000346     0.2225376951
Bq         0.8724389365    -0.5012227030     0.3345356703
Bq         0.9521624641    -0.4479914008     0.1590062208
Bq         0.8325771727    -0.5278383541     0.4223003950
Bq         0.9920242278    -0.4213757497     0.0712414961
Bq         0.7927154089    -0.5544540052     0.5100651197
Bq         1.0318859916    -0.3947600986    -0.0165232286
Bq         0.7528536451    -0.5810696563     0.5978298444
Bq         1.0717477554    -0.3681444475    -0.1042879533
Bq         0.7129918813    -0.6076853074     0.6855945691
Bq         1.1116095192    -0.3415287964    -0.1920526780
Bq         0.9123007003    -0.4746070519     0.2467709456
Bq         0.8614324631    -0.4048297203     0.3587689207
Bq         0.9411559907    -0.3515984181     0.1832394713
Bq         0.8215706993    -0.4314453714     0.4465336454
Bq         0.9810177545    -0.3249827670     0.0954747466
Bq         0.7817089355    -0.4580610225     0.5342983701
Bq         1.0208795183    -0.2983671159     0.0077100219
Bq         0.7418471717    -0.4846766736     0.6220630949
Bq         1.0607412820    -0.2717514648    -0.0800547028
Bq         0.7019854080    -0.5112923247     0.7098278196
Bq         1.1006030458    -0.2451358137    -0.1678194276
Bq         0.9012942269    -0.3782140692     0.2710041960
Bq         0.8504259897    -0.3084367376     0.3830021712
Bq         0.9301495173    -0.2552054354     0.2074727218
Bq         0.8105642259    -0.3350523887     0.4707668959
Bq         0.9700112811    -0.2285897843     0.1197079970
Bq         0.7707024622    -0.3616680398     0.5585316206
Bq         1.0098730449    -0.2019741332     0.0319432723
Bq         0.7308406984    -0.3882836909     0.6462963453

1
2
3
4
5
6
7
8
9
10
11
12
13
14
15
16
17
18
19
20
21
22
23
24
25
26
27
28
29
30
31
32
33
34
35
36
37
38
39
40
41
42
43
44
45
46
47
48
49
50
51
52
53
54
55
56
57
58
59
60
61
62
63
64
65
66
67
68
69
70
71
72
73
74
75
76
77
78
79
80
81
82
83
84
85
86
87
88
89
90
91
92
93
94
95
96
97
98
99
100
101
102
103
104
105
106
107
108
109
110
111
112
113
114
115
116
117
118
119
120
121
122
123
124
125
126
127
128
129
130
131
132
133
134
135
136
137
138
139
140
141
142
143
144
145
146
147
148
149
150
151
152
153
154
155
156
157
158
159
160
161
162
163
164
165
166
167
168
169
170
171
172
173
174
175
176
177
178
179
180
181
182
183
184
185
186
187
188
189
190
191
192
193
194
195
196
197
198
199
200
201
202
203
204
205
206
207
208
209
210
211
212
213
214
215
216
217
218
219
220
221
222
223
224
225
226
227
228
229
230
231
232
233
234
235
236

