%nproc=8
%mem=1000MB
# rb3lyp/6-311+g** NMR geom=connectivity

Title

0 1
C    -4.0500558   -0.5771862    0.8136712
H    -5.0263804   -1.0082727    1.0024760
C    -3.9381552    0.6617804    0.2400876
H    -4.8252424    1.2338890   -0.0111295
C    -2.6768410    1.2433246    0.0057578
C    -1.4974121    0.5051527    0.2848253
C    -1.6508332   -0.7338728    0.9404026
H    -0.7713646   -1.2730967    1.2633753
C    -2.8898548   -1.2624035    1.1994307
H    -2.9683706   -2.2124563    1.7152676
C    -2.5773185    2.5963696   -0.4192930
H    -3.4870728    3.1412239   -0.6474055
C    -1.3741895    3.2147896   -0.4364030
H    -1.2997315    4.2742019   -0.6578144
C    -0.1719488    2.4994090   -0.1734588
C    -0.2043917    1.1018437    0.0192689
C     1.0513491    3.2042560   -0.0676222
H     1.0427344    4.2819499   -0.1896997
C     2.1942091    2.5487446    0.2579577
H     3.1168527    3.0912848    0.4334727
C     2.2216473    1.1336562    0.2934990
C     1.0486931    0.3945528    0.0302412
C     3.4483363    0.4614633    0.5573939
H     4.3095794    1.0606054    0.8334846
C     3.5427346   -0.8855926    0.4749463
H     4.4731467   -1.3939704    0.7038822
C     2.4490052   -1.6474447   -0.0196319
C     1.2150704   -1.0057258   -0.3013573
C     0.2531113   -1.7434440   -1.0216591
H    -0.6541356   -1.2535051   -1.3462847
C     0.4494193   -3.0628597   -1.3413779
H    -0.3083162   -3.5944309   -1.9054060
C     1.6251726   -3.7207967   -0.9552541
H     1.7670048   -4.7687404   -1.1927019
C     2.6109872   -3.0144177   -0.3183050
H     3.5525612   -3.4902813   -0.0646367
Bq         2.6668951991    -2.9908942241     0.7363595603
Bq         2.9857893094    -2.7779690153     0.0342417626
Bq         2.6270334353    -3.0175098753     0.8241242850
Bq         3.0256510732    -2.7513533642    -0.0535229621
Bq         2.8263422542    -2.8844316197     0.3853006614
Bq         2.7754740171    -2.8146542881     0.4972986366
Bq         2.8551975446    -2.7614229859     0.3217691872
Bq         2.7356122533    -2.8412699392     0.5850633613
Bq         2.8950593084    -2.7348073348     0.2340044624
Bq         2.6957504895    -2.8678855903     0.6728280860
Bq         2.9349210722    -2.7081916837     0.1462397377
Bq         2.6558887257    -2.8945012414     0.7605928107
Bq         2.9747828360    -2.6815760326     0.0584750130
Bq         2.6160269619    -2.9211168925     0.8483575354
Bq         3.0146445998    -2.6549603815    -0.0292897117
Bq         2.8153357808    -2.7880386370     0.4095339119
Bq         2.7644675437    -2.7182613054     0.5215318870
Bq         2.8441910713    -2.6650300032     0.3460024376
Bq         2.7246057799    -2.7448769565     0.6092966118
Bq         2.8840528350    -2.6384143521     0.2582377129
Bq         2.6847440161    -2.7714926076     0.6970613365
Bq         2.9239145988    -2.6117987010     0.1704729882
Bq         2.6448822523    -2.7981082587     0.7848260612
Bq         2.9637763626    -2.5851830499     0.0827082635
Bq         2.6050204885    -2.8247239098     0.8725907859
Bq         3.0036381264    -2.5585673988    -0.0050564612
Bq         2.8043293075    -2.6916456543     0.4337671623
Bq         2.7534610703    -2.6218683227     0.5457651375
Bq         2.8331845979    -2.5686370205     0.3702356881
Bq         2.7135993065    -2.6484839738     0.6335298622
Bq         2.8730463617    -2.5420213694     0.2824709634
Bq         2.6737375427    -2.6750996249     0.7212945869
Bq         2.9129081255    -2.5154057183     0.1947062386
Bq         2.6338757789    -2.7017152760     0.8090593116
Bq         2.9527698892    -2.4887900672     0.1069415139
Bq         2.5940140152    -2.7283309271     0.8968240364
Bq         2.9926316530    -2.4621744160     0.0191767892
Bq         2.7933228341    -2.5952526716     0.4580004128
Bq         2.7424545969    -2.5254753400     0.5699983880
Bq         2.8221781245    -2.4722440378     0.3944689385
Bq         2.7025928332    -2.5520909911     0.6577631127
Bq         2.8620398883    -2.4456283867     0.3067042138
Bq         2.6627310694    -2.5787066422     0.7455278374
Bq         2.9019016521    -2.4190127355     0.2189394891
Bq         2.6228693056    -2.6053222933     0.8332925621
Bq         2.9417634159    -2.3923970844     0.1311747644
Bq         2.5830075418    -2.6319379444     0.9210572868
Bq         2.9816251797    -2.3657814333     0.0434100397
Bq         2.7823163607    -2.4988596889     0.4822336632
Bq         2.7314481236    -2.4290823573     0.5942316384
Bq         2.8111716511    -2.3758510550     0.4187021890
Bq         2.6915863598    -2.4556980084     0.6819963631
Bq         2.8510334149    -2.3492354039     0.3309374643
Bq         2.6517245960    -2.4823136595     0.7697610878
Bq         2.8908951787    -2.3226197528     0.2431727396
Bq         2.6118628322    -2.5089293106     0.8575258126
Bq         2.9307569425    -2.2960041017     0.1554080149
Bq         2.5720010684    -2.5355449617     0.9452905373
Bq         2.9706187063    -2.2693884506     0.0676432901
Bq         2.7713098874    -2.4024667062     0.5064669137
Bq         2.7204416502    -2.3326893746     0.6184648889
Bq         2.8001651778    -2.2794580723     0.4429354394
Bq         2.6805798864    -2.3593050257     0.7062296136
Bq         2.8400269416    -2.2528424212     0.3551707147
Bq         2.6407181226    -2.3859206768     0.7939943383
Bq         2.8798887053    -2.2262267701     0.2674059900
Bq         2.6008563588    -2.4125363279     0.8817590630
Bq         2.9197504691    -2.1996111190     0.1796412653
Bq         2.5609945950    -2.4391519790     0.9695237877
Bq         2.9596122329    -2.1729954679     0.0918765406
Bq         2.7603034140    -2.3060737234     0.5307001642
Bq         2.7094351768    -2.2362963918     0.6426981393
Bq         2.7891587044    -2.1830650896     0.4671686899
Bq         2.6695734130    -2.2629120429     0.7304628640
Bq         2.8290204682    -2.1564494385     0.3794039652
Bq         2.6297116492    -2.2895276941     0.8182275888
Bq         2.8688822320    -2.1298337874     0.2916392405
Bq         2.5898498855    -2.3161433452     0.9059923135
Bq         2.9087439958    -2.1032181363     0.2038745158
Bq         2.5499881217    -2.3427589963     0.9937570382
Bq         2.9486057595    -2.0766024852     0.1161097911
Bq         2.7492969406    -2.2096807407     0.5549334146
Bq         2.6984287034    -2.1399034091     0.6669313898
Bq         2.7781522310    -2.0866721069     0.4914019404
Bq         2.6585669397    -2.1665190602     0.7546961145
Bq         2.8180139948    -2.0600564558     0.4036372157
Bq         2.6187051759    -2.1931347113     0.8424608392
Bq         2.8578757586    -2.0334408047     0.3158724909
Bq         2.5788434121    -2.2197503624     0.9302255639
Bq         2.8977375224    -2.0068251536     0.2281077662
Bq         2.5389816483    -2.2463660136     1.0179902886
Bq         2.9375992862    -1.9802095025     0.1403430415
Bq         2.7382904672    -2.1132877580     0.5791666651
Bq         2.6874222301    -2.0435104264     0.6911646402
Bq         2.7671457577    -1.9902791242     0.5156351908
Bq         2.6475604663    -2.0701260775     0.7789293650
Bq         2.8070075214    -1.9636634731     0.4278704661
Bq         2.6076987025    -2.0967417286     0.8666940897
Bq         2.8468692852    -1.9370478220     0.3401057414
Bq         2.5678369387    -2.1233573797     0.9544588144
Bq         2.8867310490    -1.9104321709     0.2523410167
Bq         2.5279751749    -2.1499730308     1.0422235391
Bq         2.9265928128    -1.8838165198     0.1645762920
Bq         2.7272839939    -2.0168947753     0.6033999155
Bq         2.6764157567    -1.9471174437     0.7153978907
Bq         2.7561392843    -1.8938861415     0.5398684413
Bq         2.6365539929    -1.9737330948     0.8031626154
Bq         2.7960010481    -1.8672704904     0.4521037166
Bq         2.5966922291    -2.0003487459     0.8909273401
Bq         2.8358628119    -1.8406548393     0.3643389919
Bq         2.5568304653    -2.0269643970     0.9786920648
Bq         2.8757245756    -1.8140391882     0.2765742671
Bq         2.5169687016    -2.0535800481     1.0664567896
Bq         2.9155863394    -1.7874235371     0.1888095424
Bq         2.7162775205    -1.9205017926     0.6276331660
Bq         2.6654092833    -1.8507244610     0.7396311412
Bq         2.7451328109    -1.7974931588     0.5641016917
Bq         2.6255475195    -1.8773401121     0.8273958659
Bq         2.7849945747    -1.7708775077     0.4763369670
Bq         2.5856857558    -1.9039557632     0.9151605906
Bq         2.8248563385    -1.7442618566     0.3885722423
Bq         2.5458239920    -1.9305714143     1.0029253153
Bq         2.8647181023    -1.7176462055     0.3008075176
Bq         2.5059622282    -1.9571870654     1.0906900400
Bq         2.9045798661    -1.6910305543     0.2130427929
Bq         2.7052710471    -1.8241088099     0.6518664165
Bq         2.6544028100    -1.7543314783     0.7638643916
Bq         2.7341263375    -1.7011001761     0.5883349422
Bq         2.6145410462    -1.7809471294     0.8516291163
Bq         2.7739881013    -1.6744845250     0.5005702175
Bq         2.5746792824    -1.8075627805     0.9393938410
Bq         2.8138498651    -1.6478688739     0.4128054928
Bq         2.5348175186    -1.8341784316     1.0271585658
Bq         2.8537116289    -1.6212532227     0.3250407681
Bq         2.4949557548    -1.8607940827     1.1149232905
Bq         2.8935733927    -1.5946375716     0.2372760433
Bq         2.6942645737    -1.7277158272     0.6760996669
Bq         2.6433963366    -1.6579384956     0.7880976421
Bq         2.7231198642    -1.6047071934     0.6125681927
Bq         2.6035345728    -1.6845541467     0.8758623668
Bq         2.7629816280    -1.5780915422     0.5248034679
Bq         2.5636728090    -1.7111697978     0.9636270915
Bq         2.8028433917    -1.5514758911     0.4370387432
Bq         2.5238110452    -1.7377854489     1.0513918162
Bq         2.8427051555    -1.5248602400     0.3492740185
Bq         2.4839492814    -1.7644011000     1.1391565409
Bq         2.8825669193    -1.4982445889     0.2615092938
Bq         2.6832581004    -1.6313228445     0.7003329174
Bq         2.6323898632    -1.5615455129     0.8123308925
Bq         2.7121133908    -1.5083142106     0.6368014431
Bq         2.5925280994    -1.5881611640     0.9000956173
Bq         2.7519751546    -1.4816985595     0.5490367184
Bq         2.5526663356    -1.6147768151     0.9878603420
Bq         2.7918369184    -1.4550829084     0.4612719937
Bq         2.5128045719    -1.6413924662     1.0756250667
Bq         2.8316986822    -1.4284672573     0.3735072690
Bq         2.4729428081    -1.6680081173     1.1633897914
Bq         2.8715604459    -1.4018516062     0.2857425443
Bq         2.6722516270    -1.5349298617     0.7245661678
Bq         2.6213833898    -1.4651525301     0.8365641430
Bq         2.7011069174    -1.4119212279     0.6610346936
Bq         2.5815216261    -1.4917681812     0.9243288677
Bq         2.7409686812    -1.3853055768     0.5732699689
Bq         2.5416598623    -1.5183838324     1.0120935924
Bq         2.7808304450    -1.3586899257     0.4855052441
Bq         2.5017980985    -1.5449994835     1.0998583171
Bq         2.8206922088    -1.3320742746     0.3977405194
Bq         2.4619363347    -1.5716151346     1.1876230418
Bq         2.8605539726    -1.3054586235     0.3099757947
Bq         2.6612451536    -1.4385368790     0.7487994183
Bq         2.6103769165    -1.3687595474     0.8607973935
Bq         2.6901004440    -1.3155282452     0.6852679440
Bq         2.5705151527    -1.3953751985     0.9485621182
Bq         2.7299622078    -1.2889125941     0.5975032193
Bq         2.5306533889    -1.4219908496     1.0363268429
Bq         2.7698239716    -1.2622969430     0.5097384946
Bq         2.4907916251    -1.4486065008     1.1240915676
Bq         2.8096857354    -1.2356812919     0.4219737699
Bq         2.4509298613    -1.4752221519     1.2118562923
Bq         2.8495474992    -1.2090656408     0.3342090452
Bq         2.6502386803    -1.3421438963     0.7730326687
Bq         2.5993704431    -1.2723665647     0.8850306439
Bq         2.6790939707    -1.2191352625     0.7095011945
Bq         2.5595086793    -1.2989822158     0.9727953686
Bq         2.7189557345    -1.1925196114     0.6217364698
Bq         2.5196469155    -1.3255978669     1.0605600933
Bq         2.7588174983    -1.1659039603     0.5339717451
Bq         2.4797851517    -1.3522135180     1.1483248181
Bq         2.7986792620    -1.1392883092     0.4462070203
Bq         2.4399233880    -1.3788291691     1.2360895428
Bq         2.8385410258    -1.1126726581     0.3584422956
Bq         2.6392322069    -1.2457509136     0.7972659192
Bq         2.5883639697    -1.1759735820     0.9092638944
Bq         2.6680874973    -1.1227422798     0.7337344449
Bq         2.5485022059    -1.2025892331     0.9970286191
Bq         2.7079492611    -1.0961266287     0.6459697202
Bq         2.5086404422    -1.2292048842     1.0847933438
Bq         2.7478110249    -1.0695109776     0.5582049955
Bq         2.4687786784    -1.2558205353     1.1725580685
Bq         2.7876727887    -1.0428953265     0.4704402708

1
2
3
4
5
6
7
8
9
10
11
12
13
14
15
16
17
18
19
20
21
22
23
24
25
26
27
28
29
30
31
32
33
34
35
36
37
38
39
40
41
42
43
44
45
46
47
48
49
50
51
52
53
54
55
56
57
58
59
60
61
62
63
64
65
66
67
68
69
70
71
72
73
74
75
76
77
78
79
80
81
82
83
84
85
86
87
88
89
90
91
92
93
94
95
96
97
98
99
100
101
102
103
104
105
106
107
108
109
110
111
112
113
114
115
116
117
118
119
120
121
122
123
124
125
126
127
128
129
130
131
132
133
134
135
136
137
138
139
140
141
142
143
144
145
146
147
148
149
150
151
152
153
154
155
156
157
158
159
160
161
162
163
164
165
166
167
168
169
170
171
172
173
174
175
176
177
178
179
180
181
182
183
184
185
186
187
188
189
190
191
192
193
194
195
196
197
198
199
200
201
202
203
204
205
206
207
208
209
210
211
212
213
214
215
216
217
218
219
220
221
222
223
224
225
226
227
228
229
230
231
232
233
234
235
236

