%nproc=8
%mem=1000MB
# rb3lyp/6-311+g** NMR geom=connectivity

Title

0 1
C    -4.0500558   -0.5771862    0.8136712
H    -5.0263804   -1.0082727    1.0024760
C    -3.9381552    0.6617804    0.2400876
H    -4.8252424    1.2338890   -0.0111295
C    -2.6768410    1.2433246    0.0057578
C    -1.4974121    0.5051527    0.2848253
C    -1.6508332   -0.7338728    0.9404026
H    -0.7713646   -1.2730967    1.2633753
C    -2.8898548   -1.2624035    1.1994307
H    -2.9683706   -2.2124563    1.7152676
C    -2.5773185    2.5963696   -0.4192930
H    -3.4870728    3.1412239   -0.6474055
C    -1.3741895    3.2147896   -0.4364030
H    -1.2997315    4.2742019   -0.6578144
C    -0.1719488    2.4994090   -0.1734588
C    -0.2043917    1.1018437    0.0192689
C     1.0513491    3.2042560   -0.0676222
H     1.0427344    4.2819499   -0.1896997
C     2.1942091    2.5487446    0.2579577
H     3.1168527    3.0912848    0.4334727
C     2.2216473    1.1336562    0.2934990
C     1.0486931    0.3945528    0.0302412
C     3.4483363    0.4614633    0.5573939
H     4.3095794    1.0606054    0.8334846
C     3.5427346   -0.8855926    0.4749463
H     4.4731467   -1.3939704    0.7038822
C     2.4490052   -1.6474447   -0.0196319
C     1.2150704   -1.0057258   -0.3013573
C     0.2531113   -1.7434440   -1.0216591
H    -0.6541356   -1.2535051   -1.3462847
C     0.4494193   -3.0628597   -1.3413779
H    -0.3083162   -3.5944309   -1.9054060
C     1.6251726   -3.7207967   -0.9552541
H     1.7670048   -4.7687404   -1.1927019
C     2.6109872   -3.0144177   -0.3183050
H     3.5525612   -3.4902813   -0.0646367
Bq         2.6352753243    -1.3618300126     0.9295739061
Bq         2.7893485103    -1.2764640584     0.3560112615
Bq         2.6095964600    -1.3760576716     1.0251676802
Bq         2.8150273746    -1.2622363994     0.2604174875
Bq         2.5839175957    -1.3902853306     1.1207614543
Bq         2.8407062389    -1.2480087404     0.1648237134
Bq         2.7123119173    -1.3191470355     0.6427925838
Bq         2.6829420024    -1.2343920005     0.7521268975
Bq         2.7342997311    -1.2059366824     0.5609393493
Bq         2.6572631381    -1.2486196595     0.8477206716
Bq         2.7599785954    -1.1917090234     0.4653455752
Bq         2.6315842738    -1.2628473185     0.9433144457
Bq         2.7856574597    -1.1774813644     0.3697518011
Bq         2.6059054095    -1.2770749776     1.0389082198
Bq         2.8113363241    -1.1632537054     0.2741580270
Bq         2.5802265452    -1.2913026366     1.1345019939
Bq         2.8370151884    -1.1490260463     0.1785642529
Bq         2.7086208668    -1.2201643415     0.6565331234
Bq         2.6792509519    -1.1354093065     0.7658674370
Bq         2.7306086806    -1.1069539884     0.5746798889
Bq         2.6535720876    -1.1496369655     0.8614612111
Bq         2.7562875449    -1.0927263294     0.4790861148
Bq         2.6278932233    -1.1638646245     0.9570549852
Bq         2.7819664092    -1.0784986703     0.3834923407
Bq         2.6022143589    -1.1780922835     1.0526487593
Bq         2.8076452735    -1.0642710113     0.2878985666
Bq         2.5765354946    -1.1923199426     1.1482425334
Bq         2.8333241378    -1.0500433523     0.1923047925
Bq         2.7049298162    -1.1211816474     0.6702736629
Bq         2.6755599014    -1.0364266124     0.7796079766
Bq         2.7269176300    -1.0079712944     0.5884204284
Bq         2.6498810371    -1.0506542714     0.8752017507
Bq         2.7525964943    -0.9937436353     0.4928266543
Bq         2.6242021727    -1.0648819305     0.9707955248
Bq         2.7782753587    -0.9795159763     0.3972328802
Bq         2.5985233084    -1.0791095895     1.0663892989
Bq         2.8039542230    -0.9652883173     0.3016391061
Bq         2.5728444441    -1.0933372485     1.1619830730
Bq         2.8296330873    -0.9510606583     0.2060453320
Bq         2.7012387657    -1.0221989534     0.6840142025
Bq         2.6718688508    -0.9374439184     0.7933485162
Bq         2.7232265795    -0.9089886003     0.6021609680
Bq         2.6461899865    -0.9516715774     0.8889422903
Bq         2.7489054438    -0.8947609413     0.5065671939
Bq         2.6205111222    -0.9658992364     0.9845360643
Bq         2.7745843081    -0.8805332823     0.4109734198
Bq         2.5948322579    -0.9801268955     1.0801298384
Bq         2.8002631725    -0.8663056232     0.3153796457
Bq         2.5691533936    -0.9943545545     1.1757236125
Bq         2.8259420368    -0.8520779642     0.2197858716
Bq         2.6975477152    -0.9232162594     0.6977547421
Bq         2.6681778003    -0.8384612243     0.8070890557
Bq         2.7195355290    -0.8100059063     0.6159015075
Bq         2.6424989360    -0.8526888834     0.9026828298
Bq         2.7452143933    -0.7957782473     0.5203077334
Bq         2.6168200717    -0.8669165424     0.9982766039
Bq         2.7708932576    -0.7815505882     0.4247139593
Bq         2.5911412073    -0.8811442014     1.0938703780
Bq         2.7965721219    -0.7673229292     0.3291201852
Bq         2.5654623430    -0.8953718605     1.1894641521
Bq         2.8222509862    -0.7530952702     0.2335264112
Bq         2.6938566646    -0.8242335653     0.7114952816
Bq         2.6644867498    -0.7394785303     0.8208295953
Bq         2.7158444784    -0.7110232123     0.6296420471
Bq         2.6388078854    -0.7537061893     0.9164233694
Bq         2.7415233427    -0.6967955532     0.5340482730
Bq         2.6131290211    -0.7679338484     1.0120171435
Bq         2.7672022071    -0.6825678942     0.4384544989
Bq         2.5874501568    -0.7821615074     1.1076109176
Bq         2.7928810714    -0.6683402352     0.3428607248
Bq         2.5617712925    -0.7963891664     1.2032046917
Bq         2.8185599357    -0.6541125761     0.2472669507
Bq         2.6901656141    -0.7252508713     0.7252358212
Bq         2.6607956992    -0.6404958363     0.8345701348
Bq         2.7121534279    -0.6120405182     0.6433825866
Bq         2.6351168349    -0.6547234953     0.9301639089
Bq         2.7378322922    -0.5978128592     0.5477888126
Bq         2.6094379706    -0.6689511543     1.0257576830
Bq         2.7635111565    -0.5835852002     0.4521950385
Bq         2.5837591063    -0.6831788134     1.1213514571
Bq         2.7891900208    -0.5693575411     0.3566012644
Bq         2.5580802419    -0.6974064724     1.2169452312
Bq         2.8148688852    -0.5551298821     0.2610074903
Bq         2.6864745636    -0.6262681772     0.7389763607
Bq         2.6571046487    -0.5415131422     0.8483106744
Bq         2.7084623773    -0.5130578242     0.6571231262
Bq         2.6314257844    -0.5557408013     0.9439044485
Bq         2.7341412417    -0.4988301652     0.5615293521
Bq         2.6057469201    -0.5699684603     1.0394982226
Bq         2.7598201060    -0.4846025061     0.4659355780
Bq         2.5800680557    -0.5841961193     1.1350919967
Bq         2.7854989703    -0.4703748471     0.3703418039
Bq         2.5543891914    -0.5984237784     1.2306857708
Bq         2.8111778346    -0.4561471881     0.2747480298
Bq         2.6827835130    -0.5272854832     0.7527169003
Bq         2.6534135982    -0.4425304482     0.8620512140
Bq         2.7047713268    -0.4140751301     0.6708636658
Bq         2.6277347338    -0.4567581072     0.9576449880
Bq         2.7304501911    -0.3998474711     0.5752698917
Bq         2.6020558695    -0.4709857663     1.0532387621
Bq         2.7561290555    -0.3856198121     0.4796761176
Bq         2.5763770052    -0.4852134253     1.1488325362
Bq         2.7818079198    -0.3713921531     0.3840823435
Bq         2.5506981409    -0.4994410843     1.2444263103
Bq         2.8074867841    -0.3571644940     0.2884885694
Bq         2.6790924625    -0.4283027892     0.7664574399
Bq         2.6497225476    -0.3435477542     0.8757917535
Bq         2.7010802763    -0.3150924361     0.6846042053
Bq         2.6240436833    -0.3577754132     0.9713855276
Bq         2.7267591406    -0.3008647771     0.5890104312
Bq         2.5983648190    -0.3720030722     1.0669793017
Bq         2.7524380049    -0.2866371181     0.4934166571
Bq         2.5726859547    -0.3862307313     1.1625730758
Bq         2.7781168692    -0.2724094590     0.3978228830
Bq         2.5470070903    -0.4004583903     1.2581668499
Bq         2.8037957336    -0.2581818000     0.3022291089
Bq         2.6754014120    -0.3293200951     0.7801979794
Bq         2.6460314971    -0.2445650601     0.8895322931
Bq         2.6973892257    -0.2161097421     0.6983447449
Bq         2.6203526328    -0.2587927192     0.9851260672
Bq         2.7230680901    -0.2018820830     0.6027509708
Bq         2.5946737685    -0.2730203782     1.0807198413
Bq         2.7487469544    -0.1876544240     0.5071571967
Bq         2.5689949041    -0.2872480372     1.1763136154
Bq         2.7744258187    -0.1734267650     0.4115634226
Bq         2.5433160398    -0.3014756962     1.2719073895
Bq         2.8001046830    -0.1591991060     0.3159696485
Bq         2.6717103614    -0.2303374011     0.7939385190
Bq         2.6423404466    -0.1455823661     0.9032728326
Bq         2.6936981752    -0.1171270480     0.7120852844
Bq         2.6166615822    -0.1598100251     0.9988666067
Bq         2.7193770395    -0.1028993890     0.6164915103
Bq         2.5909827179    -0.1740376842     1.0944603808
Bq         2.7450559039    -0.0886717300     0.5208977363
Bq         2.5653038536    -0.1882653432     1.1900541549
Bq         2.7707347682    -0.0744440710     0.4253039622
Bq         2.5396249893    -0.2024930022     1.2856479290
Bq         2.7964136325    -0.0602164119     0.3297101881
Bq         2.6680193109    -0.1313547071     0.8076790585
Bq         2.6386493960    -0.0465996721     0.9170133722
Bq         2.6900071247    -0.0181443540     0.7258258240
Bq         2.6129705317    -0.0608273311     1.0126071463
Bq         2.7156859890    -0.0039166950     0.6302320499
Bq         2.5872916674    -0.0750549901     1.1082009204
Bq         2.7413648533     0.0103109641     0.5346382758
Bq         2.5616128031    -0.0892826491     1.2037946945
Bq         2.7670437176     0.0245386231     0.4390445017
Bq         2.5359339387    -0.1035103082     1.2993884686
Bq         2.7927225820     0.0387662821     0.3434507276
Bq         2.6643282603    -0.0323720130     0.8214195981
Bq         2.6349583455     0.0523830220     0.9307539117
Bq         2.6863160741     0.0808383400     0.7395663636
Bq         2.6092794812     0.0381553629     1.0263476858
Bq         2.7119949385     0.0950659991     0.6439725895
Bq         2.5836006168     0.0239277039     1.1219414599
Bq         2.7376738028     0.1092936581     0.5483788154
Bq         2.5579217525     0.0097000449     1.2175352340
Bq         2.7633526671     0.1235213171     0.4527850413
Bq         2.5322428882    -0.0045276141     1.3131290081
Bq         2.7890315314     0.1377489761     0.3571912672
Bq         2.6606372098     0.0666106810     0.8351601377
Bq         2.6312672950     0.1513657160     0.9444944513
Bq         2.6826250236     0.1798210341     0.7533069031
Bq         2.6055884306     0.1371380570     1.0400882254
Bq         2.7083038879     0.1940486931     0.6577131290
Bq         2.5799095663     0.1229103980     1.1356819995
Bq         2.7339827522     0.2082763521     0.5621193549
Bq         2.5542307020     0.1086827389     1.2312757736
Bq         2.7596616166     0.2225040112     0.4665255808
Bq         2.5285518377     0.0944550799     1.3268695477
Bq         2.7853404809     0.2367316702     0.3709318067
Bq         2.6569461593     0.1655933750     0.8489006772
Bq         2.6275762444     0.2503484100     0.9582349909
Bq         2.6789339731     0.2788037281     0.7670474427
Bq         2.6018973801     0.2361207510     1.0538287650
Bq         2.7046128374     0.2930313871     0.6714536686
Bq         2.5762185158     0.2218930920     1.1494225391
Bq         2.7302917017     0.3072590462     0.5758598945
Bq         2.5505396515     0.2076654330     1.2450163132
Bq         2.7559705660     0.3214867052     0.4802661204
Bq         2.5248607871     0.1934377739     1.3406100872
Bq         2.7816494304     0.3357143642     0.3846723463
Bq         2.6532551087     0.2645760691     0.8626412168
Bq         2.6238851939     0.3493311041     0.9719755304
Bq         2.6752429225     0.3777864221     0.7807879822
Bq         2.5982063296     0.3351034451     1.0675693045
Bq         2.7009217869     0.3920140812     0.6851942081
Bq         2.5725274652     0.3208757860     1.1631630786
Bq         2.7266006512     0.4062417402     0.5896004340
Bq         2.5468486009     0.3066481270     1.2587568527
Bq         2.7522795155     0.4204693992     0.4940066600
Bq         2.5211697366     0.2924204680     1.3543506268
Bq         2.7779583798     0.4346970583     0.3984128859
Bq         2.6495640582     0.3635587631     0.8763817563
Bq         2.6201941433     0.4483137981     0.9857160700
Bq         2.6715518720     0.4767691162     0.7945285218
Bq         2.5945152790     0.4340861391     1.0813098441
Bq         2.6972307363     0.4909967752     0.6989347477
Bq         2.5688364147     0.4198584801     1.1769036182
Bq         2.7229096006     0.5052244342     0.6033409736

1
2
3
4
5
6
7
8
9
10
11
12
13
14
15
16
17
18
19
20
21
22
23
24
25
26
27
28
29
30
31
32
33
34
35
36
37
38
39
40
41
42
43
44
45
46
47
48
49
50
51
52
53
54
55
56
57
58
59
60
61
62
63
64
65
66
67
68
69
70
71
72
73
74
75
76
77
78
79
80
81
82
83
84
85
86
87
88
89
90
91
92
93
94
95
96
97
98
99
100
101
102
103
104
105
106
107
108
109
110
111
112
113
114
115
116
117
118
119
120
121
122
123
124
125
126
127
128
129
130
131
132
133
134
135
136
137
138
139
140
141
142
143
144
145
146
147
148
149
150
151
152
153
154
155
156
157
158
159
160
161
162
163
164
165
166
167
168
169
170
171
172
173
174
175
176
177
178
179
180
181
182
183
184
185
186
187
188
189
190
191
192
193
194
195
196
197
198
199
200
201
202
203
204
205
206
207
208
209
210
211
212
213
214
215
216
217
218
219
220
221
222
223
224
225
226
227
228
229
230
231
232
233
234
235
236

