%nproc=8
%mem=1000MB
# rb3lyp/6-311+g** NMR geom=connectivity

Title

0 1
C    -4.0500558   -0.5771862    0.8136712
H    -5.0263804   -1.0082727    1.0024760
C    -3.9381552    0.6617804    0.2400876
H    -4.8252424    1.2338890   -0.0111295
C    -2.6768410    1.2433246    0.0057578
C    -1.4974121    0.5051527    0.2848253
C    -1.6508332   -0.7338728    0.9404026
H    -0.7713646   -1.2730967    1.2633753
C    -2.8898548   -1.2624035    1.1994307
H    -2.9683706   -2.2124563    1.7152676
C    -2.5773185    2.5963696   -0.4192930
H    -3.4870728    3.1412239   -0.6474055
C    -1.3741895    3.2147896   -0.4364030
H    -1.2997315    4.2742019   -0.6578144
C    -0.1719488    2.4994090   -0.1734588
C    -0.2043917    1.1018437    0.0192689
C     1.0513491    3.2042560   -0.0676222
H     1.0427344    4.2819499   -0.1896997
C     2.1942091    2.5487446    0.2579577
H     3.1168527    3.0912848    0.4334727
C     2.2216473    1.1336562    0.2934990
C     1.0486931    0.3945528    0.0302412
C     3.4483363    0.4614633    0.5573939
H     4.3095794    1.0606054    0.8334846
C     3.5427346   -0.8855926    0.4749463
H     4.4731467   -1.3939704    0.7038822
C     2.4490052   -1.6474447   -0.0196319
C     1.2150704   -1.0057258   -0.3013573
C     0.2531113   -1.7434440   -1.0216591
H    -0.6541356   -1.2535051   -1.3462847
C     0.4494193   -3.0628597   -1.3413779
H    -0.3083162   -3.5944309   -1.9054060
C     1.6251726   -3.7207967   -0.9552541
H     1.7670048   -4.7687404   -1.1927019
C     2.6109872   -3.0144177   -0.3183050
H     3.5525612   -3.4902813   -0.0646367
Bq        -1.1871915452    -0.3966642467     1.4316663783
Bq        -1.1864835541    -0.4836296807     1.2515649845
Bq        -1.1875455408    -0.3531815297     1.5217170751
Bq        -1.1861295585    -0.5271123977     1.1615142876
Bq        -1.1878995364    -0.3096988127     1.6117677720
Bq        -1.1857755629    -0.5705951147     1.0714635907
Bq        -1.1882535319    -0.2662160957     1.7018184689
Bq        -1.1854215673    -0.6140778317     0.9814128939
Bq        -1.1886075275    -0.2227333786     1.7918691658
Bq        -1.1850675718    -0.6575605487     0.8913621970
Bq        -1.1868375496    -0.4401469637     1.3416156814
Bq        -1.1870206129    -0.3066128540     1.3881839972
Bq        -1.1863126218    -0.3935782880     1.2080826035
Bq        -1.1873746085    -0.2631301370     1.4782346941
Bq        -1.1859586262    -0.4370610050     1.1180319066
Bq        -1.1877286041    -0.2196474200     1.5682853910
Bq        -1.1856046306    -0.4805437220     1.0279812097
Bq        -1.1880825997    -0.1761647030     1.6583360879
Bq        -1.1852506351    -0.5240264390     0.9379305128
Bq        -1.1884365952    -0.1326819860     1.7483867848
Bq        -1.1848966395    -0.5675091560     0.8478798159
Bq        -1.1866666174    -0.3500955710     1.2981333003
Bq        -1.1868496807    -0.2165614613     1.3447016162
Bq        -1.1861416895    -0.3035268953     1.1646002224
Bq        -1.1872036762    -0.1730787443     1.4347523131
Bq        -1.1857876939    -0.3470096123     1.0745495256
Bq        -1.1875576718    -0.1295960273     1.5248030100
Bq        -1.1854336984    -0.3904923293     0.9844988287
Bq        -1.1879116674    -0.0861133103     1.6148537068
Bq        -1.1850797028    -0.4339750463     0.8944481318
Bq        -1.1882656630    -0.0426305933     1.7049044037
Bq        -1.1847257072    -0.4774577634     0.8043974349
Bq        -1.1864956851    -0.2600441783     1.2546509193
Bq        -1.1866787484    -0.1265100687     1.3012192352
Bq        -1.1859707572    -0.2134755027     1.1211178414
Bq        -1.1870327440    -0.0830273517     1.3912699320
Bq        -1.1856167617    -0.2569582197     1.0310671445
Bq        -1.1873867395    -0.0395446346     1.4813206289
Bq        -1.1852627661    -0.3004409367     0.9410164476
Bq        -1.1877407351     0.0039380824     1.5713713258
Bq        -1.1849087705    -0.3439236537     0.8509657508
Bq        -1.1880947307     0.0474207994     1.6614220227
Bq        -1.1845547749    -0.3874063707     0.7609150539
Bq        -1.1863247528    -0.1699927857     1.2111685383
Bq        -1.1865078161    -0.0364586760     1.2577368541
Bq        -1.1857998250    -0.1234241100     1.0776354604
Bq        -1.1868618117     0.0070240410     1.3477875510
Bq        -1.1854458294    -0.1669068270     0.9875847635
Bq        -1.1872158073     0.0505067580     1.4378382479
Bq        -1.1850918338    -0.2103895440     0.8975340666
Bq        -1.1875698028     0.0939894750     1.5278889448
Bq        -1.1847378382    -0.2538722610     0.8074833697
Bq        -1.1879237984     0.1374721920     1.6179396417
Bq        -1.1843838427    -0.2973549780     0.7174326728
Bq        -1.1861538205    -0.0799413930     1.1676861573
Bq        -1.1863368838     0.0535927167     1.2142544731
Bq        -1.1856288927    -0.0333727173     1.0341530793
Bq        -1.1866908794     0.0970754337     1.3043051700
Bq        -1.1852748971    -0.0768554343     0.9441023825
Bq        -1.1870448750     0.1405581507     1.3943558669
Bq        -1.1849209015    -0.1203381513     0.8540516856
Bq        -1.1873988706     0.1840408677     1.4844065638
Bq        -1.1845669060    -0.1638208683     0.7640009887
Bq        -1.1877528661     0.2275235847     1.5744572606
Bq        -1.1842129104    -0.2073035853     0.6739502918
Bq        -1.1859828883     0.0101099997     1.1242037762
Bq        -1.1861659516     0.1436441094     1.1707720921
Bq        -1.1854579604     0.0566786753     0.9906706983
Bq        -1.1865199471     0.1871268264     1.2608227890
Bq        -1.1851039648     0.0131959583     0.9006200014
Bq        -1.1868739427     0.2306095434     1.3508734858
Bq        -1.1847499693    -0.0302867587     0.8105693045
Bq        -1.1872279383     0.2740922604     1.4409241827
Bq        -1.1843959737    -0.0737694757     0.7205186077
Bq        -1.1875819339     0.3175749774     1.5309748796
Bq        -1.1840419781    -0.1172521927     0.6304679108
Bq        -1.1858119560     0.1001613924     1.0807213952
Bq        -1.1859950193     0.2336955020     1.1272897110
Bq        -1.1852870281     0.1467300680     0.9471883173
Bq        -1.1863490149     0.2771782190     1.2173404079
Bq        -1.1849330326     0.1032473510     0.8571376204
Bq        -1.1867030104     0.3206609360     1.3073911048
Bq        -1.1845790370     0.0597646340     0.7670869235
Bq        -1.1870570060     0.3641436530     1.3974418017
Bq        -1.1842250414     0.0162819170     0.6770362266
Bq        -1.1874110016     0.4076263700     1.4874924986
Bq        -1.1838710458    -0.0272008000     0.5869855297
Bq        -1.1856410237     0.1902127850     1.0372390142
Bq        -1.1858240870     0.3237468947     1.0838073300
Bq        -1.1851160959     0.2367814607     0.9037059362
Bq        -1.1861780826     0.3672296117     1.1738580269
Bq        -1.1847621003     0.1932987437     0.8136552394
Bq        -1.1865320782     0.4107123287     1.2639087238
Bq        -1.1844081047     0.1498160267     0.7236045425
Bq        -1.1868860737     0.4541950457     1.3539594207
Bq        -1.1840541091     0.1063333097     0.6335538456
Bq        -1.1872400693     0.4976777627     1.4440101175
Bq        -1.1837001136     0.0628505927     0.5435031487
Bq        -1.1854700914     0.2802641777     0.9937566331
Bq        -1.1856531547     0.4137982874     1.0403249490
Bq        -1.1849451636     0.3268328534     0.8602235552
Bq        -1.1860071503     0.4572810044     1.1303756459
Bq        -1.1845911680     0.2833501364     0.7701728583
Bq        -1.1863611459     0.5007637214     1.2204263427
Bq        -1.1842371724     0.2398674194     0.6801221614
Bq        -1.1867151415     0.5442464384     1.3104770396
Bq        -1.1838831769     0.1963847023     0.5900714646
Bq        -1.1870691370     0.5877291554     1.4005277365
Bq        -1.1835291813     0.1529019853     0.5000207677
Bq        -1.1852991592     0.3703155704     0.9502742521
Bq        -1.1854822225     0.5038496800     0.9968425679
Bq        -1.1847742313     0.4168842460     0.8167411742
Bq        -1.1858362180     0.5473323970     1.0868932648
Bq        -1.1844202357     0.3734015290     0.7266904773
Bq        -1.1861902136     0.5908151140     1.1769439617
Bq        -1.1840662402     0.3299188120     0.6366397804
Bq        -1.1865442092     0.6342978311     1.2669946586
Bq        -1.1837122446     0.2864360950     0.5465890835
Bq        -1.1868982048     0.6777805481     1.3570453555
Bq        -1.1833582490     0.2429533780     0.4565383866
Bq        -1.1851282269     0.4603669630     0.9067918711
Bq        -1.1853112902     0.5939010727     0.9533601869
Bq        -1.1846032990     0.5069356387     0.7732587931
Bq        -1.1856652858     0.6373837897     1.0434108838
Bq        -1.1842493035     0.4634529217     0.6832080963
Bq        -1.1860192813     0.6808665067     1.1334615807
Bq        -1.1838953079     0.4199702047     0.5931573994
Bq        -1.1863732769     0.7243492237     1.2235122776
Bq        -1.1835413123     0.3764874877     0.5031067025
Bq        -1.1867272725     0.7678319407     1.3135629744
Bq        -1.1831873167     0.3330047707     0.4130560056
Bq        -1.1849572946     0.5504183557     0.8633094900
Bq        -1.1851403579     0.6839524654     0.9098778059
Bq        -1.1844323668     0.5969870314     0.7297764121
Bq        -1.1854943535     0.7274351824     0.9999285028
Bq        -1.1840783712     0.5535043144     0.6397257152
Bq        -1.1858483491     0.7709178994     1.0899791996
Bq        -1.1837243756     0.5100215974     0.5496750183
Bq        -1.1862023446     0.8144006164     1.1800298965
Bq        -1.1833703800     0.4665388804     0.4596243215
Bq        -1.1865563402     0.8578833334     1.2700805934
Bq        -1.1830163845     0.4230561634     0.3695736246
Bq        -1.1847863623     0.6404697484     0.8198271090
Bq        -1.1849694256     0.7740038581     0.8663954248
Bq        -1.1842614345     0.6870384240     0.6862940311
Bq        -1.1853234212     0.8174865751     0.9564461217
Bq        -1.1839074389     0.6435557070     0.5962433342
Bq        -1.1856774168     0.8609692921     1.0464968186
Bq        -1.1835534433     0.6000729900     0.5061926373
Bq        -1.1860314124     0.9044520091     1.1365475155
Bq        -1.1831994478     0.5565902730     0.4161419404
Bq        -1.1863854079     0.9479347261     1.2265982124
Bq        -1.1828454522     0.5131075560     0.3260912435
Bq        -1.1846154301     0.7305211410     0.7763447280
Bq        -1.1847984934     0.8640552507     0.8229130438
Bq        -1.1840905022     0.7770898167     0.6428116500
Bq        -1.1851524889     0.9075379677     0.9129637407
Bq        -1.1837365066     0.7336070997     0.5527609532
Bq        -1.1855064845     0.9510206847     1.0030144376
Bq        -1.1833825111     0.6901243827     0.4627102563
Bq        -1.1858604801     0.9945034017     1.0930651345
Bq        -1.1830285155     0.6466416657     0.3726595594
Bq        -1.1862144757     1.0379861187     1.1831158313
Bq        -1.1826745199     0.6031589487     0.2826088625
Bq        -1.1844444978     0.8205725337     0.7328623469
Bq        -1.1846275611     0.9541066434     0.7794306628
Bq        -1.1839195699     0.8671412094     0.5993292690
Bq        -1.1849815567     0.9975893604     0.8694813597
Bq        -1.1835655744     0.8236584924     0.5092785721
Bq        -1.1853355522     1.0410720774     0.9595320565
Bq        -1.1832115788     0.7801757754     0.4192278752
Bq        -1.1856895478     1.0845547944     1.0495827534
Bq        -1.1828575832     0.7366930584     0.3291771784
Bq        -1.1860435434     1.1280375114     1.1396334503
Bq        -1.1825035876     0.6932103414     0.2391264815
Bq        -1.1842735655     0.9106239264     0.6893799659
Bq        -1.1844566288     1.0441580361     0.7359482817
Bq        -1.1837486377     0.9571926021     0.5558468880
Bq        -1.1848106244     1.0876407531     0.8259989786
Bq        -1.1833946421     0.9137098850     0.4657961911
Bq        -1.1851646200     1.1311234701     0.9160496755
Bq        -1.1830406465     0.8702271680     0.3757454942
Bq        -1.1855186155     1.1746061871     1.0061003724
Bq        -1.1826866509     0.8267444510     0.2856947973
Bq        -1.1858726111     1.2180889041     1.0961510693
Bq        -1.1823326554     0.7832617340     0.1956441004
Bq        -1.1841026332     1.0006753191     0.6458975849
Bq        -1.1842856965     1.1342094287     0.6924659007
Bq        -1.1835777054     1.0472439947     0.5123645069
Bq        -1.1846396921     1.1776921457     0.7825165976
Bq        -1.1832237098     1.0037612777     0.4223138101
Bq        -1.1849936877     1.2211748627     0.8725672945
Bq        -1.1828697142     0.9602785607     0.3322631132
Bq        -1.1853476833     1.2646575797     0.9626179914
Bq        -1.1825157187     0.9167958437     0.2422124163
Bq        -1.1857016788     1.3081402968     1.0526686882
Bq        -1.1821617231     0.8733131267     0.1521617194
Bq        -1.1839317010     1.0907267117     0.6024152038
Bq        -1.1841147643     1.2242608214     0.6489835197
Bq        -1.1834067731     1.1372953874     0.4688821259

1
2
3
4
5
6
7
8
9
10
11
12
13
14
15
16
17
18
19
20
21
22
23
24
25
26
27
28
29
30
31
32
33
34
35
36
37
38
39
40
41
42
43
44
45
46
47
48
49
50
51
52
53
54
55
56
57
58
59
60
61
62
63
64
65
66
67
68
69
70
71
72
73
74
75
76
77
78
79
80
81
82
83
84
85
86
87
88
89
90
91
92
93
94
95
96
97
98
99
100
101
102
103
104
105
106
107
108
109
110
111
112
113
114
115
116
117
118
119
120
121
122
123
124
125
126
127
128
129
130
131
132
133
134
135
136
137
138
139
140
141
142
143
144
145
146
147
148
149
150
151
152
153
154
155
156
157
158
159
160
161
162
163
164
165
166
167
168
169
170
171
172
173
174
175
176
177
178
179
180
181
182
183
184
185
186
187
188
189
190
191
192
193
194
195
196
197
198
199
200
201
202
203
204
205
206
207
208
209
210
211
212
213
214
215
216
217
218
219
220
221
222
223
224
225
226
227
228
229
230
231
232
233
234
235
236

