%nproc=8
%mem=1000MB
# rb3lyp/6-311+g** NMR geom=connectivity

Title

0 1
C    -4.0500558   -0.5771862    0.8136712
H    -5.0263804   -1.0082727    1.0024760
C    -3.9381552    0.6617804    0.2400876
H    -4.8252424    1.2338890   -0.0111295
C    -2.6768410    1.2433246    0.0057578
C    -1.4974121    0.5051527    0.2848253
C    -1.6508332   -0.7338728    0.9404026
H    -0.7713646   -1.2730967    1.2633753
C    -2.8898548   -1.2624035    1.1994307
H    -2.9683706   -2.2124563    1.7152676
C    -2.5773185    2.5963696   -0.4192930
H    -3.4870728    3.1412239   -0.6474055
C    -1.3741895    3.2147896   -0.4364030
H    -1.2997315    4.2742019   -0.6578144
C    -0.1719488    2.4994090   -0.1734588
C    -0.2043917    1.1018437    0.0192689
C     1.0513491    3.2042560   -0.0676222
H     1.0427344    4.2819499   -0.1896997
C     2.1942091    2.5487446    0.2579577
H     3.1168527    3.0912848    0.4334727
C     2.2216473    1.1336562    0.2934990
C     1.0486931    0.3945528    0.0302412
C     3.4483363    0.4614633    0.5573939
H     4.3095794    1.0606054    0.8334846
C     3.5427346   -0.8855926    0.4749463
H     4.4731467   -1.3939704    0.7038822
C     2.4490052   -1.6474447   -0.0196319
C     1.2150704   -1.0057258   -0.3013573
C     0.2531113   -1.7434440   -1.0216591
H    -0.6541356   -1.2535051   -1.3462847
C     0.4494193   -3.0628597   -1.3413779
H    -0.3083162   -3.5944309   -1.9054060
C     1.6251726   -3.7207967   -0.9552541
H     1.7670048   -4.7687404   -1.1927019
C     2.6109872   -3.0144177   -0.3183050
H     3.5525612   -3.4902813   -0.0646367
Bq         0.8226313661    -2.6628326941     0.3536278120
Bq         1.0280622807    -2.5490114219    -0.4111223808
Bq         0.7969525018    -2.6770603531     0.4492215860
Bq         1.0537411450    -2.5347837628    -0.5067161549
Bq         0.9253468234    -2.6059220580    -0.0287472844
Bq         0.8959769085    -2.5211670230     0.0805870292
Bq         0.9473346372    -2.4927117049    -0.1106005190
Bq         0.8702980442    -2.5353946820     0.1761808033
Bq         0.9730135015    -2.4784840459    -0.2061942931
Bq         0.8446191799    -2.5496223410     0.2717745774
Bq         0.9986923658    -2.4642563868    -0.3017880672
Bq         0.8189403156    -2.5638500000     0.3673683515
Bq         1.0243712301    -2.4500287278    -0.3973818412
Bq         0.7932614512    -2.5780776591     0.4629621256
Bq         1.0500500945    -2.4358010688    -0.4929756153
Bq         0.9216557728    -2.5069393639    -0.0150067449
Bq         0.8922858580    -2.4221843289     0.0943275688
Bq         0.9436435866    -2.3937290109    -0.0968599794
Bq         0.8666069937    -2.4364119879     0.1899213429
Bq         0.9693224510    -2.3795013518    -0.1924537535
Bq         0.8409281293    -2.4506396470     0.2855151170
Bq         0.9950013153    -2.3652736928    -0.2880475276
Bq         0.8152492650    -2.4648673060     0.3811088911
Bq         1.0206801796    -2.3510460338    -0.3836413017
Bq         0.7895704007    -2.4790949650     0.4767026652
Bq         1.0463590439    -2.3368183748    -0.4792350758
Bq         0.9179647223    -2.4079566699    -0.0012662053
Bq         0.8885948075    -2.3232016349     0.1080681083
Bq         0.9399525361    -2.2947463168    -0.0831194398
Bq         0.8629159431    -2.3374292939     0.2036618824
Bq         0.9656314004    -2.2805186578    -0.1787132139
Bq         0.8372370788    -2.3516569529     0.2992556565
Bq         0.9913102647    -2.2662909988    -0.2743069880
Bq         0.8115582145    -2.3658846120     0.3948494306
Bq         1.0169891291    -2.2520633397    -0.3699007621
Bq         0.7858793502    -2.3801122710     0.4904432047
Bq         1.0426679934    -2.2378356807    -0.4654945362
Bq         0.9142736718    -2.3089739759     0.0124743343
Bq         0.8849037569    -2.2242189408     0.1218086479
Bq         0.9362614856    -2.1957636228    -0.0693789003
Bq         0.8592248926    -2.2384465999     0.2174024220
Bq         0.9619403499    -2.1815359638    -0.1649726744
Bq         0.8335460283    -2.2526742589     0.3129961961
Bq         0.9876192142    -2.1673083047    -0.2605664485
Bq         0.8078671640    -2.2669019179     0.4085899702
Bq         1.0132980785    -2.1530806457    -0.3561602226
Bq         0.7821882996    -2.2811295770     0.5041837443
Bq         1.0389769429    -2.1388529867    -0.4517539967
Bq         0.9105826212    -2.2099912818     0.0262148738
Bq         0.8812127064    -2.1252362468     0.1355491875
Bq         0.9325704350    -2.0967809288    -0.0556383607
Bq         0.8555338421    -2.1394639058     0.2311429616
Bq         0.9582492994    -2.0825532697    -0.1512321348
Bq         0.8298549777    -2.1536915649     0.3267367357
Bq         0.9839281637    -2.0683256107    -0.2468259089
Bq         0.8041761134    -2.1679192239     0.4223305097
Bq         1.0096070280    -2.0540979517    -0.3424196830
Bq         0.7784972491    -2.1821468829     0.5179242838
Bq         1.0352858923    -2.0398702926    -0.4380134571
Bq         0.9068915707    -2.1110085878     0.0399554134
Bq         0.8775216558    -2.0262535528     0.1492897270
Bq         0.9288793845    -1.9977982347    -0.0418978212
Bq         0.8518427915    -2.0404812118     0.2448835011
Bq         0.9545582488    -1.9835705757    -0.1374915953
Bq         0.8261639272    -2.0547088708     0.3404772752
Bq         0.9802371131    -1.9693429167    -0.2330853694
Bq         0.8004850629    -2.0689365299     0.4360710493
Bq         1.0059159775    -1.9551152576    -0.3286791435
Bq         0.7748061986    -2.0831641889     0.5316648234
Bq         1.0315948418    -1.9408875986    -0.4242729175
Bq         0.9032005202    -2.0120258937     0.0536959529
Bq         0.8738306053    -1.9272708587     0.1630302666
Bq         0.9251883340    -1.8988155407    -0.0281572816
Bq         0.8481517410    -1.9414985178     0.2586240407
Bq         0.9508671983    -1.8845878817    -0.1237510557
Bq         0.8224728767    -1.9557261768     0.3542178148
Bq         0.9765460626    -1.8703602226    -0.2193448298
Bq         0.7967940123    -1.9699538358     0.4498115889
Bq         1.0022249269    -1.8561325636    -0.3149386039
Bq         0.7711151480    -1.9841814949     0.5454053630
Bq         1.0279037912    -1.8419049046    -0.4105323780
Bq         0.8995094696    -1.9130431997     0.0674364925
Bq         0.8701395548    -1.8282881647     0.1767708061
Bq         0.9214972834    -1.7998328466    -0.0144167421
Bq         0.8444606905    -1.8425158237     0.2723645802
Bq         0.9471761477    -1.7856051876    -0.1100105161
Bq         0.8187818261    -1.8567434828     0.3679583543
Bq         0.9728550121    -1.7713775286    -0.2056042902
Bq         0.7931029618    -1.8709711418     0.4635521284
Bq         0.9985338764    -1.7571498696    -0.3011980643
Bq         0.7674240975    -1.8851988008     0.5591459025
Bq         1.0242127407    -1.7429222105    -0.3967918384
Bq         0.8958184191    -1.8140605057     0.0811770320
Bq         0.8664485042    -1.7293054707     0.1905113457
Bq         0.9178062329    -1.7008501526    -0.0006762025
Bq         0.8407696399    -1.7435331297     0.2861051198
Bq         0.9434850972    -1.6866224936    -0.0962699766
Bq         0.8150907756    -1.7577607887     0.3816988939
Bq         0.9691639615    -1.6723948346    -0.1918637507
Bq         0.7894119113    -1.7719884478     0.4772926680
Bq         0.9948428259    -1.6581671755    -0.2874575248
Bq         0.7637330470    -1.7862161068     0.5728864421
Bq         1.0205216902    -1.6439395165    -0.3830512989
Bq         0.8921273686    -1.7150778116     0.0949175716
Bq         0.8627574537    -1.6303227766     0.2042518853
Bq         0.9141151824    -1.6018674586     0.0130643371
Bq         0.8370785894    -1.6445504357     0.2998456594
Bq         0.9397940467    -1.5876397995    -0.0825294370
Bq         0.8113997251    -1.6587780947     0.3954394334
Bq         0.9654729110    -1.5734121405    -0.1781232111
Bq         0.7857208607    -1.6730057537     0.4910332075
Bq         0.9911517753    -1.5591844815    -0.2737169852
Bq         0.7600419964    -1.6872334127     0.5866269816
Bq         1.0168306396    -1.5449568225    -0.3693107593
Bq         0.8884363180    -1.6160951176     0.1086581112
Bq         0.8590664032    -1.5313400826     0.2179924248
Bq         0.9104241318    -1.5028847645     0.0268048766
Bq         0.8333875388    -1.5455677416     0.3135861989
Bq         0.9361029961    -1.4886571055    -0.0687888975
Bq         0.8077086745    -1.5597954007     0.4091799730
Bq         0.9617818605    -1.4744294465    -0.1643826716
Bq         0.7820298102    -1.5740230597     0.5047737471
Bq         0.9874607248    -1.4602017875    -0.2599764457
Bq         0.7563509459    -1.5882507187     0.6003675212
Bq         1.0131395891    -1.4459741284    -0.3555702198
Bq         0.8847452675    -1.5171124236     0.1223986507
Bq         0.8553753526    -1.4323573886     0.2317329644
Bq         0.9067330813    -1.4039020705     0.0405454162
Bq         0.8296964883    -1.4465850476     0.3273267385
Bq         0.9324119456    -1.3896744115    -0.0550483579
Bq         0.8040176240    -1.4608127066     0.4229205126
Bq         0.9580908099    -1.3754467524    -0.1506421320
Bq         0.7783387597    -1.4750403656     0.5185142867
Bq         0.9837696742    -1.3612190934    -0.2462359061
Bq         0.7526598953    -1.4892680247     0.6141080608
Bq         1.0094485386    -1.3469914344    -0.3418296802
Bq         0.8810542170    -1.4181297295     0.1361391903
Bq         0.8516843021    -1.3333746945     0.2454735039
Bq         0.9030420307    -1.3049193765     0.0542859557
Bq         0.8260054378    -1.3476023536     0.3410672780
Bq         0.9287208951    -1.2906917174    -0.0413078184
Bq         0.8003265735    -1.3618300126     0.4366610521
Bq         0.9543997594    -1.2764640584    -0.1369015924
Bq         0.7746477091    -1.3760576716     0.5322548262
Bq         0.9800786237    -1.2622363994    -0.2324953665
Bq         0.7489688448    -1.3902853306     0.6278486003
Bq         1.0057574880    -1.2480087404    -0.3280891406
Bq         0.8773631664    -1.3191470355     0.1498797298
Bq         0.8479932516    -1.2343920005     0.2592140435
Bq         0.8993509802    -1.2059366824     0.0680264953
Bq         0.8223143872    -1.2486196595     0.3548078176
Bq         0.9250298445    -1.1917090234    -0.0275672788
Bq         0.7966355229    -1.2628473185     0.4504015917
Bq         0.9507087089    -1.1774813644    -0.1231610529
Bq         0.7709566586    -1.2770749776     0.5459953658
Bq         0.9763875732    -1.1632537054    -0.2187548270
Bq         0.7452777943    -1.2913026366     0.6415891399
Bq         1.0020664375    -1.1490260463    -0.3143486011
Bq         0.8736721159    -1.2201643415     0.1636202694
Bq         0.8443022010    -1.1354093065     0.2729545831
Bq         0.8956599297    -1.1069539884     0.0817670349
Bq         0.8186233367    -1.1496369655     0.3685483571
Bq         0.9213387940    -1.0927263294    -0.0138267392
Bq         0.7929444724    -1.1638646245     0.4641421312
Bq         0.9470176583    -1.0784986703    -0.1094205133
Bq         0.7672656081    -1.1780922835     0.5597359053
Bq         0.9726965226    -1.0642710113    -0.2050142874
Bq         0.7415867437    -1.1923199426     0.6553296794
Bq         0.9983753870    -1.0500433523    -0.3006080615
Bq         0.8699810654    -1.1211816474     0.1773608090
Bq         0.8406111505    -1.0364266124     0.2866951226
Bq         0.8919688791    -1.0079712944     0.0955075744
Bq         0.8149322862    -1.0506542714     0.3822888967
Bq         0.9176477435    -0.9937436353    -0.0000861997
Bq         0.7892534218    -1.0648819305     0.4778826708
Bq         0.9433266078    -0.9795159763    -0.0956799738
Bq         0.7635745575    -1.0791095895     0.5734764449
Bq         0.9690054721    -0.9652883173    -0.1912737479
Bq         0.7378956932    -1.0933372485     0.6690702190
Bq         0.9946843364    -0.9510606583    -0.2868675220
Bq         0.8662900148    -1.0221989534     0.1911013485
Bq         0.8369201000    -0.9374439184     0.3004356622
Bq         0.8882778286    -0.9089886003     0.1092481140
Bq         0.8112412356    -0.9516715774     0.3960294363
Bq         0.9139566929    -0.8947609413     0.0136543399
Bq         0.7855623713    -0.9658992364     0.4916232104
Bq         0.9396355572    -0.8805332823    -0.0819394342
Bq         0.7598835070    -0.9801268955     0.5872169845
Bq         0.9653144216    -0.8663056232    -0.1775332083
Bq         0.7342046427    -0.9943545545     0.6828107585
Bq         0.9909932859    -0.8520779642    -0.2731269824
Bq         0.8625989643    -0.9232162594     0.2048418881
Bq         0.8332290494    -0.8384612243     0.3141762017
Bq         0.8845867781    -0.8100059063     0.1229886535
Bq         0.8075501851    -0.8526888834     0.4097699758
Bq         0.9102656424    -0.7957782473     0.0273948794
Bq         0.7818713208    -0.8669165424     0.5053637499
Bq         0.9359445067    -0.7815505882    -0.0681988947
Bq         0.7561924565    -0.8811442014     0.6009575240
Bq         0.9616233710    -0.7673229292    -0.1637926687

1
2
3
4
5
6
7
8
9
10
11
12
13
14
15
16
17
18
19
20
21
22
23
24
25
26
27
28
29
30
31
32
33
34
35
36
37
38
39
40
41
42
43
44
45
46
47
48
49
50
51
52
53
54
55
56
57
58
59
60
61
62
63
64
65
66
67
68
69
70
71
72
73
74
75
76
77
78
79
80
81
82
83
84
85
86
87
88
89
90
91
92
93
94
95
96
97
98
99
100
101
102
103
104
105
106
107
108
109
110
111
112
113
114
115
116
117
118
119
120
121
122
123
124
125
126
127
128
129
130
131
132
133
134
135
136
137
138
139
140
141
142
143
144
145
146
147
148
149
150
151
152
153
154
155
156
157
158
159
160
161
162
163
164
165
166
167
168
169
170
171
172
173
174
175
176
177
178
179
180
181
182
183
184
185
186
187
188
189
190
191
192
193
194
195
196
197
198
199
200
201
202
203
204
205
206
207
208
209
210
211
212
213
214
215
216
217
218
219
220
221
222
223
224
225
226
227
228
229
230
231
232
233
234
235
236

