%nproc=8
%mem=1000MB
# rb3lyp/6-311+g** NMR geom=connectivity

Title

0 1
C    -4.0500558   -0.5771862    0.8136712
H    -5.0263804   -1.0082727    1.0024760
C    -3.9381552    0.6617804    0.2400876
H    -4.8252424    1.2338890   -0.0111295
C    -2.6768410    1.2433246    0.0057578
C    -1.4974121    0.5051527    0.2848253
C    -1.6508332   -0.7338728    0.9404026
H    -0.7713646   -1.2730967    1.2633753
C    -2.8898548   -1.2624035    1.1994307
H    -2.9683706   -2.2124563    1.7152676
C    -2.5773185    2.5963696   -0.4192930
H    -3.4870728    3.1412239   -0.6474055
C    -1.3741895    3.2147896   -0.4364030
H    -1.2997315    4.2742019   -0.6578144
C    -0.1719488    2.4994090   -0.1734588
C    -0.2043917    1.1018437    0.0192689
C     1.0513491    3.2042560   -0.0676222
H     1.0427344    4.2819499   -0.1896997
C     2.1942091    2.5487446    0.2579577
H     3.1168527    3.0912848    0.4334727
C     2.2216473    1.1336562    0.2934990
C     1.0486931    0.3945528    0.0302412
C     3.4483363    0.4614633    0.5573939
H     4.3095794    1.0606054    0.8334846
C     3.5427346   -0.8855926    0.4749463
H     4.4731467   -1.3939704    0.7038822
C     2.4490052   -1.6474447   -0.0196319
C     1.2150704   -1.0057258   -0.3013573
C     0.2531113   -1.7434440   -1.0216591
H    -0.6541356   -1.2535051   -1.3462847
C     0.4494193   -3.0628597   -1.3413779
H    -0.3083162   -3.5944309   -1.9054060
C     1.6251726   -3.7207967   -0.9552541
H     1.7670048   -4.7687404   -1.1927019
C     2.6109872   -3.0144177   -0.3183050
H     3.5525612   -3.4902813   -0.0646367
Bq        -1.9858179058     0.3237468947     1.0806624985
Bq        -1.9851099146     0.2367814607     0.9005611047
Bq        -1.9861719013     0.3672296117     1.1707131953
Bq        -1.9847559190     0.1932987437     0.8105104078
Bq        -1.9865258969     0.4107123287     1.2607638922
Bq        -1.9844019235     0.1498160267     0.7204597109
Bq        -1.9868798925     0.4541950457     1.3508145891
Bq        -1.9840479279     0.1063333097     0.6304090141
Bq        -1.9872338881     0.4976777627     1.4408652860
Bq        -1.9836939323     0.0628505927     0.5403583172
Bq        -1.9854639102     0.2802641777     0.9906118016
Bq        -1.9856469735     0.4137982874     1.0371801174
Bq        -1.9849389823     0.3268328534     0.8570787237
Bq        -1.9860009691     0.4572810044     1.1272308143
Bq        -1.9845849868     0.2833501364     0.7670280268
Bq        -1.9863549646     0.5007637214     1.2172815112
Bq        -1.9842309912     0.2398674194     0.6769773299
Bq        -1.9867089602     0.5442464384     1.3073322081
Bq        -1.9838769956     0.1963847023     0.5869266330
Bq        -1.9870629558     0.5877291554     1.3973829050
Bq        -1.9835230000     0.1529019853     0.4968759361
Bq        -1.9852929779     0.3703155704     0.9471294206
Bq        -1.9854760412     0.5038496800     0.9936977364
Bq        -1.9847680501     0.4168842460     0.8135963426
Bq        -1.9858300368     0.5473323970     1.0837484333
Bq        -1.9844140545     0.3734015290     0.7235456458
Bq        -1.9861840324     0.5908151140     1.1737991302
Bq        -1.9840600589     0.3299188120     0.6334949489
Bq        -1.9865380279     0.6342978311     1.2638498271
Bq        -1.9837060633     0.2864360950     0.5434442520
Bq        -1.9868920235     0.6777805481     1.3539005239
Bq        -1.9833520678     0.2429533780     0.4533935551
Bq        -1.9851220456     0.4603669630     0.9036470395
Bq        -1.9853051089     0.5939010727     0.9502153554
Bq        -1.9845971178     0.5069356387     0.7701139616
Bq        -1.9856591045     0.6373837897     1.0402660523
Bq        -1.9842431222     0.4634529217     0.6800632647
Bq        -1.9860131001     0.6808665067     1.1303167491
Bq        -1.9838891266     0.4199702047     0.5900125678
Bq        -1.9863670957     0.7243492237     1.2203674460
Bq        -1.9835351311     0.3764874877     0.4999618710
Bq        -1.9867210912     0.7678319407     1.3104181429
Bq        -1.9831811355     0.3330047707     0.4099111741
Bq        -1.9849511134     0.5504183557     0.8601646585
Bq        -1.9851341767     0.6839524654     0.9067329743
Bq        -1.9844261855     0.5969870314     0.7266315806
Bq        -1.9854881722     0.7274351824     0.9967836712
Bq        -1.9840721899     0.5535043144     0.6365808837
Bq        -1.9858421678     0.7709178994     1.0868343681
Bq        -1.9837181944     0.5100215974     0.5465301868
Bq        -1.9861961634     0.8144006164     1.1768850650
Bq        -1.9833641988     0.4665388804     0.4564794899
Bq        -1.9865501590     0.8578833334     1.2669357619
Bq        -1.9830102032     0.4230561634     0.3664287930
Bq        -1.9847801811     0.6404697484     0.8166822775
Bq        -1.9849632444     0.7740038581     0.8632505933
Bq        -1.9842552532     0.6870384240     0.6831491995
Bq        -1.9853172400     0.8174865751     0.9533012902
Bq        -1.9839012577     0.6435557070     0.5930985027
Bq        -1.9856712355     0.8609692921     1.0433519871
Bq        -1.9835472621     0.6000729900     0.5030478058
Bq        -1.9860252311     0.9044520091     1.1334026840
Bq        -1.9831932665     0.5565902730     0.4129971089
Bq        -1.9863792267     0.9479347261     1.2234533808
Bq        -1.9828392709     0.5131075560     0.3229464120
Bq        -1.9846092488     0.7305211410     0.7731998964
Bq        -1.9847923121     0.8640552507     0.8197682123
Bq        -1.9840843210     0.7770898167     0.6396668185
Bq        -1.9851463077     0.9075379677     0.9098189092
Bq        -1.9837303254     0.7336070997     0.5496161216
Bq        -1.9855003033     0.9510206847     0.9998696060
Bq        -1.9833763298     0.6901243827     0.4595654247
Bq        -1.9858542988     0.9945034017     1.0899203029
Bq        -1.9830223342     0.6466416657     0.3695147279
Bq        -1.9862082944     1.0379861187     1.1799709998
Bq        -1.9826683387     0.6031589487     0.2794640310
Bq        -1.9844383165     0.8205725337     0.7297175154
Bq        -1.9846213798     0.9541066434     0.7762858312
Bq        -1.9839133887     0.8671412094     0.5961844375
Bq        -1.9849753754     0.9975893604     0.8663365281
Bq        -1.9835593931     0.8236584924     0.5061337406
Bq        -1.9853293710     1.0410720774     0.9563872250
Bq        -1.9832053975     0.7801757754     0.4160830437
Bq        -1.9856833666     1.0845547944     1.0464379219
Bq        -1.9828514020     0.7366930584     0.3260323468
Bq        -1.9860373621     1.1280375114     1.1364886188
Bq        -1.9824974064     0.6932103414     0.2359816499
Bq        -1.9842673843     0.9106239264     0.6862351344
Bq        -1.9844504476     1.0441580361     0.7328034502
Bq        -1.9837424564     0.9571926021     0.5527020564
Bq        -1.9848044431     1.0876407531     0.8228541471
Bq        -1.9833884608     0.9137098850     0.4626513596
Bq        -1.9851584387     1.1311234701     0.9129048440
Bq        -1.9830344653     0.8702271680     0.3726006627
Bq        -1.9855124343     1.1746061871     1.0029555409
Bq        -1.9826804697     0.8267444510     0.2825499658
Bq        -1.9858664299     1.2180889041     1.0930062377
Bq        -1.9823264741     0.7832617340     0.1924992689
Bq        -1.9840964520     1.0006753191     0.6427527533
Bq        -1.9842795153     1.1342094287     0.6893210692
Bq        -1.9835715241     1.0472439947     0.5092196754
Bq        -1.9846335109     1.1776921457     0.7793717661
Bq        -1.9832175286     1.0037612777     0.4191689785
Bq        -1.9849875064     1.2211748627     0.8694224629
Bq        -1.9828635330     0.9602785607     0.3291182816
Bq        -1.9853415020     1.2646575797     0.9594731598
Bq        -1.9825095374     0.9167958437     0.2390675848
Bq        -1.9856954976     1.3081402968     1.0495238567
Bq        -1.9821555418     0.8733131267     0.1490168879
Bq        -1.9839255197     1.0907267117     0.5992703723
Bq        -1.9841085830     1.2242608214     0.6458386881
Bq        -1.9834005919     1.1372953874     0.4657372944
Bq        -1.9844625786     1.2677435384     0.7358893850
Bq        -1.9830465963     1.0938126704     0.3756865975
Bq        -1.9848165742     1.3112262554     0.8259400819
Bq        -1.9826926007     1.0503299534     0.2856359006
Bq        -1.9851705697     1.3547089724     0.9159907788
Bq        -1.9823386051     1.0068472364     0.1955852037
Bq        -1.9855245653     1.3981916894     1.0060414757
Bq        -1.9819846096     0.9633645194     0.1055345068
Bq        -1.9837545874     1.1807781044     0.5557879913
Bq        -1.9839376507     1.3143122141     0.6023563071
Bq        -1.9832296596     1.2273467801     0.4222549133
Bq        -1.9842916463     1.3577949311     0.6924070040
Bq        -1.9828756640     1.1838640631     0.3322042165
Bq        -1.9846456419     1.4012776481     0.7824577009
Bq        -1.9825216684     1.1403813461     0.2421535196
Bq        -1.9849996375     1.4447603651     0.8725083978
Bq        -1.9821676729     1.0968986291     0.1521028227
Bq        -1.9853536330     1.4882430821     0.9625590946
Bq        -1.9818136773     1.0534159120     0.0620521258
Bq        -1.9835836552     1.2708294971     0.5123056102
Bq        -1.9837667185     1.4043636067     0.5588739261
Bq        -1.9830587273     1.3173981727     0.3787725323
Bq        -1.9841207140     1.4478463237     0.6489246230
Bq        -1.9827047317     1.2739154557     0.2887218354
Bq        -1.9844747096     1.4913290408     0.7389753198
Bq        -1.9823507362     1.2304327387     0.1986711385
Bq        -1.9848287052     1.5348117578     0.8290260167
Bq        -1.9819967406     1.1869500217     0.1086204417
Bq        -1.9851827008     1.5782944748     0.9190767136
Bq        -1.9816427450     1.1434673047     0.0185697448
Bq        -1.9834127229     1.3608808897     0.4688232292
Bq        -1.9835957862     1.4944149994     0.5153915450
Bq        -1.9828877950     1.4074495654     0.3352901513
Bq        -1.9839497818     1.5378977164     0.6054422419
Bq        -1.9825337995     1.3639668484     0.2452394544
Bq        -1.9843037773     1.5813804334     0.6954929388
Bq        -1.9821798039     1.3204841314     0.1551887575
Bq        -1.9846577729     1.6248631504     0.7855436357
Bq        -1.9818258083     1.2770014144     0.0651380606
Bq        -1.9850117685     1.6683458674     0.8755943326
Bq        -1.9814718127     1.2335186974    -0.0249126363
Bq        -1.9832417906     1.4509322824     0.4253408482
Bq        -1.9834248539     1.5844663921     0.4719091640
Bq        -1.9827168628     1.4975009581     0.2918077702
Bq        -1.9837788495     1.6279491091     0.5619598609
Bq        -1.9823628672     1.4540182411     0.2017570734
Bq        -1.9841328451     1.6714318261     0.6520105578
Bq        -1.9820088716     1.4105355241     0.1117063765
Bq        -1.9844868406     1.7149145431     0.7420612547
Bq        -1.9816548760     1.3670528071     0.0216556796
Bq        -1.9848408362     1.7583972601     0.8321119515
Bq        -1.9813008805     1.3235700901    -0.0683950173
Bq        -1.9830708583     1.5409836751     0.3818584671
Bq        -1.9832539216     1.6745177848     0.4284267830
Bq        -1.9825459305     1.5875523507     0.2483253892
Bq        -1.9836079172     1.7180005018     0.5184774799
Bq        -1.9821919349     1.5440696337     0.1582746923
Bq        -1.9839619128     1.7614832188     0.6085281767
Bq        -1.9818379393     1.5005869167     0.0682239955
Bq        -1.9843159084     1.8049659358     0.6985788736
Bq        -1.9814839438     1.4571041997    -0.0218267014
Bq        -1.9846699039     1.8484486528     0.7886295705
Bq        -1.9811299482     1.4136214827    -0.1118773983
Bq        -1.9828999261     1.6310350678     0.3383760861
Bq        -1.9830829894     1.7645691774     0.3849444019
Bq        -1.9823749982     1.6776037434     0.2048430082
Bq        -1.9834369849     1.8080518944     0.4749950988
Bq        -1.9820210026     1.6341210264     0.1147923113
Bq        -1.9837909805     1.8515346114     0.5650457957
Bq        -1.9816670071     1.5906383094     0.0247416144
Bq        -1.9841449761     1.8950173284     0.6550964926
Bq        -1.9813130115     1.5471555924    -0.0653090825
Bq        -1.9844989717     1.9385000454     0.7451471895
Bq        -1.9809590159     1.5036728754    -0.1553597793
Bq        -1.9827289938     1.7210864604     0.2948937051
Bq        -1.9829120571     1.8546205701     0.3414620209
Bq        -1.9822040659     1.7676551361     0.1613606272
Bq        -1.9832660527     1.8981032871     0.4315127178
Bq        -1.9818500704     1.7241724191     0.0713099303
Bq        -1.9836200482     1.9415860041     0.5215634147
Bq        -1.9814960748     1.6806897021    -0.0187407666
Bq        -1.9839740438     1.9850687211     0.6116141116
Bq        -1.9811420792     1.6372069851    -0.1087914635
Bq        -1.9843280394     2.0285514381     0.7016648084
Bq        -1.9807880836     1.5937242681    -0.1988421604
Bq        -1.9825580615     1.8111378531     0.2514113240
Bq        -1.9827411248     1.9446719628     0.2979796399
Bq        -1.9820331337     1.8577065288     0.1178782461

1
2
3
4
5
6
7
8
9
10
11
12
13
14
15
16
17
18
19
20
21
22
23
24
25
26
27
28
29
30
31
32
33
34
35
36
37
38
39
40
41
42
43
44
45
46
47
48
49
50
51
52
53
54
55
56
57
58
59
60
61
62
63
64
65
66
67
68
69
70
71
72
73
74
75
76
77
78
79
80
81
82
83
84
85
86
87
88
89
90
91
92
93
94
95
96
97
98
99
100
101
102
103
104
105
106
107
108
109
110
111
112
113
114
115
116
117
118
119
120
121
122
123
124
125
126
127
128
129
130
131
132
133
134
135
136
137
138
139
140
141
142
143
144
145
146
147
148
149
150
151
152
153
154
155
156
157
158
159
160
161
162
163
164
165
166
167
168
169
170
171
172
173
174
175
176
177
178
179
180
181
182
183
184
185
186
187
188
189
190
191
192
193
194
195
196
197
198
199
200
201
202
203
204
205
206
207
208
209
210
211
212
213
214
215
216
217
218
219
220
221
222
223
224
225
226
227
228
229
230
231
232
233
234
235
236

