%nproc=8
%mem=1000MB
# rb3lyp/6-311+g** NMR geom=connectivity

Title

0 1
C    -4.0500558   -0.5771862    0.8136712
H    -5.0263804   -1.0082727    1.0024760
C    -3.9381552    0.6617804    0.2400876
H    -4.8252424    1.2338890   -0.0111295
C    -2.6768410    1.2433246    0.0057578
C    -1.4974121    0.5051527    0.2848253
C    -1.6508332   -0.7338728    0.9404026
H    -0.7713646   -1.2730967    1.2633753
C    -2.8898548   -1.2624035    1.1994307
H    -2.9683706   -2.2124563    1.7152676
C    -2.5773185    2.5963696   -0.4192930
H    -3.4870728    3.1412239   -0.6474055
C    -1.3741895    3.2147896   -0.4364030
H    -1.2997315    4.2742019   -0.6578144
C    -0.1719488    2.4994090   -0.1734588
C    -0.2043917    1.1018437    0.0192689
C     1.0513491    3.2042560   -0.0676222
H     1.0427344    4.2819499   -0.1896997
C     2.1942091    2.5487446    0.2579577
H     3.1168527    3.0912848    0.4334727
C     2.2216473    1.1336562    0.2934990
C     1.0486931    0.3945528    0.0302412
C     3.4483363    0.4614633    0.5573939
H     4.3095794    1.0606054    0.8334846
C     3.5427346   -0.8855926    0.4749463
H     4.4731467   -1.3939704    0.7038822
C     2.4490052   -1.6474447   -0.0196319
C     1.2150704   -1.0057258   -0.3013573
C     0.2531113   -1.7434440   -1.0216591
H    -0.6541356   -1.2535051   -1.3462847
C     0.4494193   -3.0628597   -1.3413779
H    -0.3083162   -3.5944309   -1.9054060
C     1.6251726   -3.7207967   -0.9552541
H     1.7670048   -4.7687404   -1.1927019
C     2.6109872   -3.0144177   -0.3183050
H     3.5525612   -3.4902813   -0.0646367
Bq        -4.3862515037    -1.0643347950     1.1862454729
Bq        -4.3894374639    -0.6729903420     1.9967017448
Bq        -4.3858975081    -1.1078175120     1.0961947760
Bq        -4.3876674860    -0.8904039270     1.5464482604
Bq        -4.3878505493    -0.7568698173     1.5930165762
Bq        -4.3871425581    -0.8438352514     1.4129151825
Bq        -4.3882045449    -0.7133871003     1.6830672731
Bq        -4.3867885626    -0.8873179684     1.3228644856
Bq        -4.3885585404    -0.6699043833     1.7731179700
Bq        -4.3864345670    -0.9308006854     1.2328137887
Bq        -4.3889125360    -0.6264216663     1.8631686669
Bq        -4.3860805714    -0.9742834024     1.1427630918
Bq        -4.3892665316    -0.5829389493     1.9532193638
Bq        -4.3857265759    -1.0177661194     1.0527123949
Bq        -4.3874965537    -0.8003525344     1.5029658794
Bq        -4.3876796170    -0.6668184247     1.5495341952
Bq        -4.3869716259    -0.7537838587     1.3694328014
Bq        -4.3880336126    -0.6233357077     1.6395848921
Bq        -4.3866176303    -0.7972665757     1.2793821046
Bq        -4.3883876082    -0.5798529907     1.7296355890
Bq        -4.3862636347    -0.8407492927     1.1893314077
Bq        -4.3887416037    -0.5363702737     1.8196862859
Bq        -4.3859096392    -0.8842320097     1.0992807108
Bq        -4.3890955993    -0.4928875567     1.9097369827
Bq        -4.3855556436    -0.9277147267     1.0092300139
Bq        -4.3873256214    -0.7103011417     1.4594834983
Bq        -4.3875086847    -0.5767670320     1.5060518142
Bq        -4.3868006936    -0.6637324660     1.3259504204
Bq        -4.3878626803    -0.5332843150     1.5961025111
Bq        -4.3864466980    -0.7072151830     1.2358997235
Bq        -4.3882166759    -0.4898015980     1.6861532079
Bq        -4.3860927025    -0.7506979000     1.1458490266
Bq        -4.3885706715    -0.4463188810     1.7762039048
Bq        -4.3857387069    -0.7941806170     1.0557983298
Bq        -4.3889246670    -0.4028361640     1.8662546017
Bq        -4.3853847113    -0.8376633340     0.9657476329
Bq        -4.3871546892    -0.6202497490     1.4160011173
Bq        -4.3873377525    -0.4867156393     1.4625694331
Bq        -4.3866297613    -0.5736810733     1.2824680394
Bq        -4.3876917480    -0.4432329223     1.5526201300
Bq        -4.3862757658    -0.6171637904     1.1924173425
Bq        -4.3880457436    -0.3997502053     1.6426708269
Bq        -4.3859217702    -0.6606465074     1.1023666456
Bq        -4.3883997392    -0.3562674883     1.7327215238
Bq        -4.3855677746    -0.7041292244     1.0123159487
Bq        -4.3887537348    -0.3127847713     1.8227722207
Bq        -4.3852137790    -0.7476119414     0.9222652519
Bq        -4.3869837569    -0.5301983563     1.3725187363
Bq        -4.3871668202    -0.3966642467     1.4190870521
Bq        -4.3864588291    -0.4836296807     1.2389856583
Bq        -4.3875208158    -0.3531815297     1.5091377490
Bq        -4.3861048335    -0.5271123977     1.1489349615
Bq        -4.3878748113    -0.3096988127     1.5991884459
Bq        -4.3857508379    -0.5705951147     1.0588842646
Bq        -4.3882288069    -0.2662160957     1.6892391428
Bq        -4.3853968423    -0.6140778317     0.9688335677
Bq        -4.3885828025    -0.2227333786     1.7792898396
Bq        -4.3850428468    -0.6575605487     0.8787828708
Bq        -4.3868128246    -0.4401469637     1.3290363552
Bq        -4.3869958879    -0.3066128540     1.3756046711
Bq        -4.3862878968    -0.3935782880     1.1955032773
Bq        -4.3873498835    -0.2631301370     1.4656553680
Bq        -4.3859339012    -0.4370610050     1.1054525804
Bq        -4.3877038791    -0.2196474200     1.5557060648
Bq        -4.3855799056    -0.4805437220     1.0154018836
Bq        -4.3880578746    -0.1761647030     1.6457567617
Bq        -4.3852259101    -0.5240264390     0.9253511867
Bq        -4.3884118702    -0.1326819860     1.7358074586
Bq        -4.3848719145    -0.5675091560     0.8353004898
Bq        -4.3866418924    -0.3500955710     1.2855539742
Bq        -4.3868249557    -0.2165614613     1.3321222900
Bq        -4.3861169645    -0.3035268953     1.1520208963
Bq        -4.3871789512    -0.1730787443     1.4221729869
Bq        -4.3857629689    -0.3470096123     1.0619701994
Bq        -4.3875329468    -0.1295960273     1.5122236838
Bq        -4.3854089734    -0.3904923293     0.9719195025
Bq        -4.3878869424    -0.0861133103     1.6022743807
Bq        -4.3850549778    -0.4339750463     0.8818688056
Bq        -4.3882409379    -0.0426305933     1.6923250776
Bq        -4.3847009822    -0.4774577634     0.7918181088
Bq        -4.3864709601    -0.2600441783     1.2420715932
Bq        -4.3866540234    -0.1265100687     1.2886399090
Bq        -4.3859460322    -0.2134755027     1.1085385153
Bq        -4.3870080189    -0.0830273517     1.3786906059
Bq        -4.3855920367    -0.2569582197     1.0184878184
Bq        -4.3873620145    -0.0395446346     1.4687413028
Bq        -4.3852380411    -0.3004409367     0.9284371215
Bq        -4.3877160101     0.0039380824     1.5587919997
Bq        -4.3848840455    -0.3439236537     0.8383864246
Bq        -4.3880700057     0.0474207994     1.6488426965
Bq        -4.3845300499    -0.3874063707     0.7483357277
Bq        -4.3863000278    -0.1699927857     1.1985892121
Bq        -4.3864830911    -0.0364586760     1.2451575280
Bq        -4.3857751000    -0.1234241100     1.0650561342
Bq        -4.3868370867     0.0070240410     1.3352082249
Bq        -4.3854211044    -0.1669068270     0.9750054373
Bq        -4.3871910822     0.0505067580     1.4252589217
Bq        -4.3850671088    -0.2103895440     0.8849547405
Bq        -4.3875450778     0.0939894750     1.5153096186
Bq        -4.3847131132    -0.2538722610     0.7949040436
Bq        -4.3878990734     0.1374721920     1.6053603155
Bq        -4.3843591177    -0.2973549780     0.7048533467
Bq        -4.3861290955    -0.0799413930     1.1551068311
Bq        -4.3863121588     0.0535927167     1.2016751470
Bq        -4.3856041677    -0.0333727173     1.0215737532
Bq        -4.3866661544     0.0970754337     1.2917258438
Bq        -4.3852501721    -0.0768554343     0.9315230563
Bq        -4.3870201500     0.1405581507     1.3817765407
Bq        -4.3848961765    -0.1203381513     0.8414723594
Bq        -4.3873741455     0.1840408677     1.4718272376
Bq        -4.3845421810    -0.1638208683     0.7514216625
Bq        -4.3877281411     0.2275235847     1.5618779345
Bq        -4.3841881854    -0.2073035853     0.6613709657
Bq        -4.3859581633     0.0101099997     1.1116244501
Bq        -4.3861412266     0.1436441094     1.1581927659
Bq        -4.3854332354     0.0566786753     0.9780913722
Bq        -4.3864952221     0.1871268264     1.2482434628
Bq        -4.3850792398     0.0131959583     0.8880406753
Bq        -4.3868492177     0.2306095434     1.3382941597
Bq        -4.3847252443    -0.0302867587     0.7979899784
Bq        -4.3872032133     0.2740922604     1.4283448566
Bq        -4.3843712487    -0.0737694757     0.7079392815
Bq        -4.3875572088     0.3175749774     1.5183955534
Bq        -4.3840172531    -0.1172521927     0.6178885846
Bq        -4.3857872310     0.1001613924     1.0681420690
Bq        -4.3859702943     0.2336955020     1.1147103849
Bq        -4.3852623031     0.1467300680     0.9346089911
Bq        -4.3863242899     0.2771782190     1.2047610818
Bq        -4.3849083076     0.1032473510     0.8445582942
Bq        -4.3866782854     0.3206609360     1.2948117787
Bq        -4.3845543120     0.0597646340     0.7545075974
Bq        -4.3870322810     0.3641436530     1.3848624755
Bq        -4.3842003164     0.0162819170     0.6644569005
Bq        -4.3873862766     0.4076263700     1.4749131724
Bq        -4.3838463208    -0.0272008000     0.5744062036
Bq        -4.3856162987     0.1902127850     1.0246596880
Bq        -4.3857993620     0.3237468947     1.0712280039
Bq        -4.3850913709     0.2367814607     0.8911266101
Bq        -4.3861533576     0.3672296117     1.1612787007
Bq        -4.3847373753     0.1932987437     0.8010759132
Bq        -4.3865073532     0.4107123287     1.2513293976
Bq        -4.3843833797     0.1498160267     0.7110252163
Bq        -4.3868613487     0.4541950457     1.3413800945
Bq        -4.3840293841     0.1063333097     0.6209745194
Bq        -4.3872153443     0.4976777627     1.4314307914
Bq        -4.3836753886     0.0628505927     0.5309238226
Bq        -4.3854453664     0.2802641777     0.9811773070
Bq        -4.3856284297     0.4137982874     1.0277456228
Bq        -4.3849204386     0.3268328534     0.8476442291
Bq        -4.3859824253     0.4572810044     1.1177963197
Bq        -4.3845664430     0.2833501364     0.7575935322
Bq        -4.3863364209     0.5007637214     1.2078470166
Bq        -4.3842124474     0.2398674194     0.6675428353
Bq        -4.3866904165     0.5442464384     1.2978977135
Bq        -4.3838584519     0.1963847023     0.5774921384
Bq        -4.3870444120     0.5877291554     1.3879484104
Bq        -4.3835044563     0.1529019853     0.4874414415
Bq        -4.3852744342     0.3703155704     0.9376949259
Bq        -4.3854574975     0.5038496800     0.9842632418
Bq        -4.3847495063     0.4168842460     0.8041618480
Bq        -4.3858114930     0.5473323970     1.0743139387
Bq        -4.3843955107     0.3734015290     0.7141111511
Bq        -4.3861654886     0.5908151140     1.1643646356
Bq        -4.3840415152     0.3299188120     0.6240604543
Bq        -4.3865194842     0.6342978311     1.2544153324
Bq        -4.3836875196     0.2864360950     0.5340097574
Bq        -4.3868734798     0.6777805481     1.3444660293
Bq        -4.3833335240     0.2429533780     0.4439590605
Bq        -4.3851035019     0.4603669630     0.8942125449
Bq        -4.3852865652     0.5939010727     0.9407808608
Bq        -4.3845785740     0.5069356387     0.7606794670
Bq        -4.3856405608     0.6373837897     1.0308315576
Bq        -4.3842245785     0.4634529217     0.6706287701
Bq        -4.3859945563     0.6808665067     1.1208822545
Bq        -4.3838705829     0.4199702047     0.5805780732
Bq        -4.3863485519     0.7243492237     1.2109329514
Bq        -4.3835165873     0.3764874877     0.4905273763
Bq        -4.3867025475     0.7678319407     1.3009836483
Bq        -4.3831625917     0.3330047707     0.4004766795
Bq        -4.3849325696     0.5504183557     0.8507301639
Bq        -4.3851156329     0.6839524654     0.8972984797
Bq        -4.3844076418     0.5969870314     0.7171970860
Bq        -4.3854696285     0.7274351824     0.9873491766
Bq        -4.3840536462     0.5535043144     0.6271463891
Bq        -4.3858236241     0.7709178994     1.0773998735
Bq        -4.3836996506     0.5100215974     0.5370956922
Bq        -4.3861776196     0.8144006164     1.1674505704
Bq        -4.3833456550     0.4665388804     0.4470449953
Bq        -4.3865316152     0.8578833334     1.2575012673
Bq        -4.3829916595     0.4230561634     0.3569942984
Bq        -4.3847616373     0.6404697484     0.8072477828
Bq        -4.3849447006     0.7740038581     0.8538160987
Bq        -4.3842367095     0.6870384240     0.6737147049
Bq        -4.3852986962     0.8174865751     0.9438667956
Bq        -4.3838827139     0.6435557070     0.5836640080
Bq        -4.3856526918     0.8609692921     1.0339174925
Bq        -4.3835287183     0.6000729900     0.4936133112
Bq        -4.3860066874     0.9044520091     1.1239681893
Bq        -4.3831747228     0.5565902730     0.4035626143
Bq        -4.3863606829     0.9479347261     1.2140188862

1
2
3
4
5
6
7
8
9
10
11
12
13
14
15
16
17
18
19
20
21
22
23
24
25
26
27
28
29
30
31
32
33
34
35
36
37
38
39
40
41
42
43
44
45
46
47
48
49
50
51
52
53
54
55
56
57
58
59
60
61
62
63
64
65
66
67
68
69
70
71
72
73
74
75
76
77
78
79
80
81
82
83
84
85
86
87
88
89
90
91
92
93
94
95
96
97
98
99
100
101
102
103
104
105
106
107
108
109
110
111
112
113
114
115
116
117
118
119
120
121
122
123
124
125
126
127
128
129
130
131
132
133
134
135
136
137
138
139
140
141
142
143
144
145
146
147
148
149
150
151
152
153
154
155
156
157
158
159
160
161
162
163
164
165
166
167
168
169
170
171
172
173
174
175
176
177
178
179
180
181
182
183
184
185
186
187
188
189
190
191
192
193
194
195
196
197
198
199
200
201
202
203
204
205
206
207
208
209
210
211
212
213
214
215
216
217
218
219
220
221
222
223
224
225
226
227
228
229
230
231
232
233
234
235
236

