%nproc=8
%mem=1000MB
# rb3lyp/6-311+g** NMR geom=connectivity

Title

0 1
C    -4.0500558   -0.5771862    0.8136712
H    -5.0263804   -1.0082727    1.0024760
C    -3.9381552    0.6617804    0.2400876
H    -4.8252424    1.2338890   -0.0111295
C    -2.6768410    1.2433246    0.0057578
C    -1.4974121    0.5051527    0.2848253
C    -1.6508332   -0.7338728    0.9404026
H    -0.7713646   -1.2730967    1.2633753
C    -2.8898548   -1.2624035    1.1994307
H    -2.9683706   -2.2124563    1.7152676
C    -2.5773185    2.5963696   -0.4192930
H    -3.4870728    3.1412239   -0.6474055
C    -1.3741895    3.2147896   -0.4364030
H    -1.2997315    4.2742019   -0.6578144
C    -0.1719488    2.4994090   -0.1734588
C    -0.2043917    1.1018437    0.0192689
C     1.0513491    3.2042560   -0.0676222
H     1.0427344    4.2819499   -0.1896997
C     2.1942091    2.5487446    0.2579577
H     3.1168527    3.0912848    0.4334727
C     2.2216473    1.1336562    0.2934990
C     1.0486931    0.3945528    0.0302412
C     3.4483363    0.4614633    0.5573939
H     4.3095794    1.0606054    0.8334846
C     3.5427346   -0.8855926    0.4749463
H     4.4731467   -1.3939704    0.7038822
C     2.4490052   -1.6474447   -0.0196319
C     1.2150704   -1.0057258   -0.3013573
C     0.2531113   -1.7434440   -1.0216591
H    -0.6541356   -1.2535051   -1.3462847
C     0.4494193   -3.0628597   -1.3413779
H    -0.3083162   -3.5944309   -1.9054060
C     1.6251726   -3.7207967   -0.9552541
H     1.7670048   -4.7687404   -1.1927019
C     2.6109872   -3.0144177   -0.3183050
H     3.5525612   -3.4902813   -0.0646367
Bq         2.9325869855    -0.3415287964     0.6350150746
Bq         2.7332781665    -0.4746070519     1.0738386981
Bq         2.6824099294    -0.4048297203     1.1858366733
Bq         2.7621334570    -0.3515984181     1.0103072239
Bq         2.6425481656    -0.4314453714     1.2736013980
Bq         2.8019952207    -0.3249827670     0.9225424992
Bq         2.6026864018    -0.4580610225     1.3613661227
Bq         2.8418569845    -0.2983671159     0.8347777744
Bq         2.5628246380    -0.4846766736     1.4491308474
Bq         2.8817187483    -0.2717514648     0.7470130497
Bq         2.5229628742    -0.5112923247     1.5368955721
Bq         2.9215805121    -0.2451358137     0.6592483250
Bq         2.7222716932    -0.3782140692     1.0980719486
Bq         2.6714034560    -0.3084367376     1.2100699237
Bq         2.7511269836    -0.2552054354     1.0345404743
Bq         2.6315416922    -0.3350523887     1.2978346485
Bq         2.7909887474    -0.2285897843     0.9467757496
Bq         2.5916799284    -0.3616680398     1.3855993732
Bq         2.8308505112    -0.2019741332     0.8590110249
Bq         2.5518181646    -0.3882836909     1.4733640979
Bq         2.8707122749    -0.1753584821     0.7712463002
Bq         2.5119564009    -0.4148993420     1.5611288226
Bq         2.9105740387    -0.1487428310     0.6834815755
Bq         2.7112652198    -0.2818210865     1.1223051990
Bq         2.6603969826    -0.2120437549     1.2343031742
Bq         2.7401205102    -0.1588124527     1.0587737248
Bq         2.6205352188    -0.2386594060     1.3220678989
Bq         2.7799822740    -0.1321968016     0.9710090001
Bq         2.5806734551    -0.2652750571     1.4098326236
Bq         2.8198440378    -0.1055811505     0.8832442754
Bq         2.5408116913    -0.2918907082     1.4975973483
Bq         2.8597058016    -0.0789654993     0.7954795506
Bq         2.5009499275    -0.3185063593     1.5853620731
Bq         2.8995675654    -0.0523498482     0.7077148259
Bq         2.7002587464    -0.1854281038     1.1465384495
Bq         2.6493905093    -0.1156507722     1.2585364247
Bq         2.7291140368    -0.0624194700     1.0830069752
Bq         2.6095287455    -0.1422664233     1.3463011494
Bq         2.7689758006    -0.0358038189     0.9952422505
Bq         2.5696669817    -0.1688820744     1.4340658741
Bq         2.8088375644    -0.0091881677     0.9074775258
Bq         2.5298052179    -0.1954977255     1.5218305988
Bq         2.8486993282     0.0174274834     0.8197128011
Bq         2.4899434541    -0.2221133766     1.6095953235
Bq         2.8885610920     0.0440431345     0.7319480764
Bq         2.6892522730    -0.0890351211     1.1707717000
Bq         3.2907630512    -4.9352999078     0.0882272894
Bq         3.3704865788    -4.8820686056    -0.0873021600
Bq         3.2509012874    -4.9619155589     0.1759920141
Bq         3.4103483425    -4.8554529545    -0.1750668847
Bq         3.2110395236    -4.9885312100     0.2637567388
Bq         3.4502101063    -4.8288373034    -0.2628316095
Bq         3.1711777598    -5.0151468611     0.3515214635
Bq         3.4900718701    -4.8022216522    -0.3505963342
Bq         3.1313159960    -5.0417625122     0.4392861882
Bq         3.5299336339    -4.7756060011    -0.4383610589
Bq         3.3306248150    -4.9086842567     0.0004625647
Bq         3.2797565778    -4.8389069251     0.1124605399
Bq         3.3594801054    -4.7856756229    -0.0630689096
Bq         3.2398948140    -4.8655225762     0.2002252646
Bq         3.3993418692    -4.7590599717    -0.1508336343
Bq         3.2000330502    -4.8921382273     0.2879899893
Bq         3.4392036330    -4.7324443206    -0.2385983590
Bq         3.1601712864    -4.9187538784     0.3757547140
Bq         3.4790653967    -4.7058286695    -0.3263630837
Bq         3.1203095227    -4.9453695295     0.4635194387
Bq         3.5189271605    -4.6792130184    -0.4141278084
Bq         3.3196183416    -4.8122912740     0.0246958151
Bq         3.2687501044    -4.7425139424     0.1366937903
Bq         3.3484736320    -4.6892826401    -0.0388356591
Bq         3.2288883406    -4.7691295935     0.2244585150
Bq         3.3883353958    -4.6626669890    -0.1266003838
Bq         3.1890265769    -4.7957452446     0.3122232397
Bq         3.4281971596    -4.6360513379    -0.2143651085
Bq         3.1491648131    -4.8223608957     0.3999879644
Bq         3.4680589234    -4.6094356868    -0.3021298333
Bq         3.1093030493    -4.8489765468     0.4877526892
Bq         3.5079206872    -4.5828200357    -0.3898945580
Bq         3.3086118682    -4.7158982912     0.0489290656
Bq         3.2577436311    -4.6461209596     0.1609270408
Bq         3.3374671586    -4.5928896574    -0.0146024087
Bq         3.2178818673    -4.6727366108     0.2486917655
Bq         3.3773289224    -4.5662740063    -0.1023671334
Bq         3.1780201035    -4.6993522619     0.3364564902
Bq         3.4171906862    -4.5396583552    -0.1901318581
Bq         3.1381583397    -4.7259679130     0.4242212149
Bq         3.4570524500    -4.5130427041    -0.2778965828
Bq         3.0982965759    -4.7525835641     0.5119859396
Bq         3.4969142138    -4.4864270530    -0.3656613075
Bq         3.2976053949    -4.6195053085     0.0731623161
Bq         3.2467371577    -4.5497279769     0.1851602912
Bq         3.3264606853    -4.4964966747     0.0096308418
Bq         3.2068753939    -4.5763436280     0.2729250159
Bq         3.3663224491    -4.4698810236    -0.0781338829
Bq         3.1670136301    -4.6029592791     0.3606897407
Bq         3.4061842128    -4.4432653725    -0.1658986076
Bq         3.1271518663    -4.6295749303     0.4484544654
Bq         3.4460459766    -4.4166497214    -0.2536633323
Bq         3.0872901025    -4.6561905814     0.5362191901
Bq         3.4859077404    -4.3900340703    -0.3414280571
Bq         3.2865989215    -4.5231123258     0.0973955665
Bq         3.2357306843    -4.4533349942     0.2093935417
Bq         3.3154542119    -4.4001036920     0.0338640923
Bq         3.1958689205    -4.4799506453     0.2971582664
Bq         3.3553159757    -4.3734880409    -0.0539006325
Bq         3.1560071567    -4.5065662964     0.3849229911
Bq         3.3951777395    -4.3468723898    -0.1416653572
Bq         3.1161453930    -4.5331819475     0.4726877158
Bq         3.4350395033    -4.3202567387    -0.2294300819
Bq         3.0762836292    -4.5597975986     0.5604524405
Bq         3.4749012670    -4.2936410876    -0.3171948066
Bq         3.2755924481    -4.4267193431     0.1216288170
Bq         3.2247242109    -4.3569420115     0.2336267921
Bq         3.3044477385    -4.3037107093     0.0580973427
Bq         3.1848624472    -4.3835576626     0.3213915169
Bq         3.3443095023    -4.2770950582    -0.0296673820
Bq         3.1450006834    -4.4101733137     0.4091562416
Bq         3.3841712661    -4.2504794071    -0.1174321067
Bq         3.1051389196    -4.4367889648     0.4969209663
Bq         3.4240330299    -4.2238637560    -0.2051968314
Bq         3.0652771558    -4.4634046159     0.5846856910
Bq         3.4638947937    -4.1972481049    -0.2929615561
Bq         3.2645859747    -4.3303263604     0.1458620674
Bq         3.2137177376    -4.2605490288     0.2578600426
Bq         3.2934412652    -4.2073177266     0.0823305932
Bq         3.1738559738    -4.2871646799     0.3456247673
Bq         3.3333030289    -4.1807020755    -0.0054341315
Bq         3.1339942100    -4.3137803310     0.4333894920
Bq         3.3731647927    -4.1540864244    -0.0931988563
Bq         3.0941324462    -4.3403959821     0.5211542167
Bq         3.4130265565    -4.1274707733    -0.1809635810
Bq         3.0542706824    -4.3670116332     0.6089189415
Bq         3.4528883203    -4.1008551222    -0.2687283057
Bq         3.2535795014    -4.2339333777     0.1700953179
Bq         3.2027112642    -4.1641560461     0.2820932931
Bq         3.2824347918    -4.1109247439     0.1065638436
Bq         3.1628495004    -4.1907716972     0.3698580178
Bq         3.3222965556    -4.0843090928     0.0187991189
Bq         3.1229877366    -4.2173873483     0.4576227425
Bq         3.3621583194    -4.0576934417    -0.0689656058
Bq         3.0831259728    -4.2440029994     0.5453874672
Bq         3.4020200831    -4.0310777905    -0.1567303305
Bq         3.0432642091    -4.2706186505     0.6331521919
Bq         3.4418818469    -4.0044621394    -0.2444950552
Bq         3.2425730280    -4.1375403950     0.1943285683
Bq         3.1917047908    -4.0677630634     0.3063265435
Bq         3.2714283184    -4.0145317612     0.1307970941
Bq         3.1518430270    -4.0943787145     0.3940912682
Bq         3.3112900822    -3.9879161100     0.0430323694
Bq         3.1119812633    -4.1209943656     0.4818559929
Bq         3.3511518460    -3.9613004589    -0.0447323553
Bq         3.0721194995    -4.1476100167     0.5696207177
Bq         3.3910136098    -3.9346848078    -0.1324970800
Bq         3.0322577357    -4.1742256678     0.6573854424
Bq         3.4308753736    -3.9080691567    -0.2202618048
Bq         3.2315665546    -4.0411474123     0.2185618188
Bq         3.1806983175    -3.9713700807     0.3305597940
Bq         3.2604218450    -3.9181387784     0.1550303445
Bq         3.1408365537    -3.9979857318     0.4183245187
Bq         3.3002836088    -3.8915231273     0.0672656198
Bq         3.1009747899    -4.0246013829     0.5060892434
Bq         3.3401453726    -3.8649074762    -0.0204991049
Bq         3.0611130261    -4.0512170340     0.5938539681
Bq         3.3800071364    -3.8382918251    -0.1082638296
Bq         3.0212512623    -4.0778326851     0.6816186928
Bq         3.4198689002    -3.8116761740    -0.1960285543
Bq         3.2205600812    -3.9447544296     0.2427950693
Bq         3.1696918441    -3.8749770979     0.3547930444
Bq         3.2494153717    -3.8217457957     0.1792635950
Bq         3.1298300803    -3.9015927491     0.4425577691
Bq         3.2892771355    -3.7951301446     0.0914988703
Bq         3.0899683165    -3.9282084002     0.5303224939
Bq         3.3291388992    -3.7685144935     0.0037341456
Bq         3.0501065527    -3.9548240513     0.6180872186
Bq         3.3690006630    -3.7418988424    -0.0840305791
Bq         3.0102447889    -3.9814397024     0.7058519433
Bq         3.4088624268    -3.7152831913    -0.1717953038
Bq         3.2095536079    -3.8483614468     0.2670283197
Bq         3.1586853707    -3.7785841152     0.3790262949
Bq         3.2384088983    -3.7253528130     0.2034968455
Bq         3.1188236069    -3.8051997663     0.4667910196
Bq         3.2782706621    -3.6987371619     0.1157321208
Bq         3.0789618431    -3.8318154174     0.5545557443
Bq         3.3181324259    -3.6721215108     0.0279673960
Bq         3.0391000794    -3.8584310686     0.6423204690
Bq         3.3579941897    -3.6455058597    -0.0597973287
Bq         2.9992383156    -3.8850467197     0.7300851937
Bq         3.3978559534    -3.6188902086    -0.1475620534
Bq         3.1985471345    -3.7519684641     0.2912615702
Bq         3.1476788973    -3.6821911325     0.4032595453
Bq         3.2274024249    -3.6289598303     0.2277300959
Bq         3.1078171336    -3.7088067836     0.4910242701
Bq         3.2672641887    -3.6023441792     0.1399653712
Bq         3.0679553698    -3.7354224347     0.5787889948
Bq         3.3071259525    -3.5757285281     0.0522006465
Bq         3.0280936060    -3.7620380858     0.6665537195
Bq         3.3469877163    -3.5491128770    -0.0355640782
Bq         2.9882318422    -3.7886537369     0.7543184442
Bq         3.3868494801    -3.5224972259    -0.1233288029
Bq         3.1875406611    -3.6555754814     0.3154948206

1
2
3
4
5
6
7
8
9
10
11
12
13
14
15
16
17
18
19
20
21
22
23
24
25
26
27
28
29
30
31
32
33
34
35
36
37
38
39
40
41
42
43
44
45
46
47
48
49
50
51
52
53
54
55
56
57
58
59
60
61
62
63
64
65
66
67
68
69
70
71
72
73
74
75
76
77
78
79
80
81
82
83
84
85
86
87
88
89
90
91
92
93
94
95
96
97
98
99
100
101
102
103
104
105
106
107
108
109
110
111
112
113
114
115
116
117
118
119
120
121
122
123
124
125
126
127
128
129
130
131
132
133
134
135
136
137
138
139
140
141
142
143
144
145
146
147
148
149
150
151
152
153
154
155
156
157
158
159
160
161
162
163
164
165
166
167
168
169
170
171
172
173
174
175
176
177
178
179
180
181
182
183
184
185
186
187
188
189
190
191
192
193
194
195
196
197
198
199
200
201
202
203
204
205
206
207
208
209
210
211
212
213
214
215
216
217
218
219
220
221
222
223
224
225
226
227
228
229
230
231
232
233
234
235
236

