%nproc=8
%mem=1000MB
# rb3lyp/6-311+g** NMR geom=connectivity

Title

0 1
C    -4.0500558   -0.5771862    0.8136712
H    -5.0263804   -1.0082727    1.0024760
C    -3.9381552    0.6617804    0.2400876
H    -4.8252424    1.2338890   -0.0111295
C    -2.6768410    1.2433246    0.0057578
C    -1.4974121    0.5051527    0.2848253
C    -1.6508332   -0.7338728    0.9404026
H    -0.7713646   -1.2730967    1.2633753
C    -2.8898548   -1.2624035    1.1994307
H    -2.9683706   -2.2124563    1.7152676
C    -2.5773185    2.5963696   -0.4192930
H    -3.4870728    3.1412239   -0.6474055
C    -1.3741895    3.2147896   -0.4364030
H    -1.2997315    4.2742019   -0.6578144
C    -0.1719488    2.4994090   -0.1734588
C    -0.2043917    1.1018437    0.0192689
C     1.0513491    3.2042560   -0.0676222
H     1.0427344    4.2819499   -0.1896997
C     2.1942091    2.5487446    0.2579577
H     3.1168527    3.0912848    0.4334727
C     2.2216473    1.1336562    0.2934990
C     1.0486931    0.3945528    0.0302412
C     3.4483363    0.4614633    0.5573939
H     4.3095794    1.0606054    0.8334846
C     3.5427346   -0.8855926    0.4749463
H     4.4731467   -1.3939704    0.7038822
C     2.4490052   -1.6474447   -0.0196319
C     1.2150704   -1.0057258   -0.3013573
C     0.2531113   -1.7434440   -1.0216591
H    -0.6541356   -1.2535051   -1.3462847
C     0.4494193   -3.0628597   -1.3413779
H    -0.3083162   -3.5944309   -1.9054060
C     1.6251726   -3.7207967   -0.9552541
H     1.7670048   -4.7687404   -1.1927019
C     2.6109872   -3.0144177   -0.3183050
H     3.5525612   -3.4902813   -0.0646367
Bq        -0.8837145626     0.2864360950     0.5477683954
Bq        -0.8869005227     0.6777805481     1.3582246673
Bq        -0.8833605670     0.2429533780     0.4577176985
Bq        -0.8851305449     0.4603669630     0.9079711829
Bq        -0.8853136082     0.5939010727     0.9545394987
Bq        -0.8846056170     0.5069356387     0.7744381050
Bq        -0.8856676037     0.6373837897     1.0445901956
Bq        -0.8842516214     0.4634529217     0.6843874081
Bq        -0.8860215993     0.6808665067     1.1346408925
Bq        -0.8838976259     0.4199702047     0.5943367112
Bq        -0.8863755949     0.7243492237     1.2246915894
Bq        -0.8835436303     0.3764874877     0.5042860143
Bq        -0.8867295905     0.7678319407     1.3147422863
Bq        -0.8831896347     0.3330047707     0.4142353174
Bq        -0.8849596126     0.5504183557     0.8644888019
Bq        -0.8851426759     0.6839524654     0.9110571177
Bq        -0.8844346847     0.5969870314     0.7309557239
Bq        -0.8854966715     0.7274351824     1.0011078146
Bq        -0.8840806892     0.5535043144     0.6409050271
Bq        -0.8858506670     0.7709178994     1.0911585115
Bq        -0.8837266936     0.5100215974     0.5508543302
Bq        -0.8862046626     0.8144006164     1.1812092083
Bq        -0.8833726980     0.4665388804     0.4608036333
Bq        -0.8865586582     0.8578833334     1.2712599052
Bq        -0.8830187024     0.4230561634     0.3707529364
Bq        -0.8847886803     0.6404697484     0.8210064208
Bq        -0.8849717436     0.7740038581     0.8675747367
Bq        -0.8842637525     0.6870384240     0.6874733429
Bq        -0.8853257392     0.8174865751     0.9576254336
Bq        -0.8839097569     0.6435557070     0.5974226460
Bq        -0.8856797348     0.8609692921     1.0476761304
Bq        -0.8835557613     0.6000729900     0.5073719491
Bq        -0.8860337303     0.9044520091     1.1377268273
Bq        -0.8832017657     0.5565902730     0.4173212523
Bq        -0.8863877259     0.9479347261     1.2277775242
Bq        -0.8828477702     0.5131075560     0.3272705554
Bq        -0.8846177480     0.7305211410     0.7775240398
Bq        -0.8848008113     0.8640552507     0.8240923556
Bq        -0.8840928202     0.7770898167     0.6439909619
Bq        -0.8851548069     0.9075379677     0.9141430525
Bq        -0.8837388246     0.7336070997     0.5539402650
Bq        -0.8855088025     0.9510206847     1.0041937494
Bq        -0.8833848290     0.6901243827     0.4638895681
Bq        -0.8858627981     0.9945034017     1.0942444463
Bq        -0.8830308335     0.6466416657     0.3738388712
Bq        -0.8862167936     1.0379861187     1.1842951432
Bq        -0.8826768379     0.6031589487     0.2837881743
Bq        -0.8844468158     0.8205725337     0.7340416588
Bq        -0.8846298791     0.9541066434     0.7806099746
Bq        -0.8839218879     0.8671412094     0.6005085808
Bq        -0.8849838746     0.9975893604     0.8706606715
Bq        -0.8835678923     0.8236584924     0.5104578840
Bq        -0.8853378702     1.0410720774     0.9607113684
Bq        -0.8832138968     0.7801757754     0.4204071871
Bq        -0.8856918658     1.0845547944     1.0507620653
Bq        -0.8828599012     0.7366930584     0.3303564902
Bq        -0.8860458614     1.1280375114     1.1408127621
Bq        -0.8825059056     0.6932103414     0.2403057933
Bq        -0.8842758835     0.9106239264     0.6905592777
Bq        -0.8844589468     1.0441580361     0.7371275936
Bq        -0.8837509556     0.9571926021     0.5570261998
Bq        -0.8848129424     1.0876407531     0.8271782905
Bq        -0.8833969601     0.9137098850     0.4669755029
Bq        -0.8851669379     1.1311234701     0.9172289873
Bq        -0.8830429645     0.8702271680     0.3769248060
Bq        -0.8855209335     1.1746061871     1.0072796842
Bq        -0.8826889689     0.8267444510     0.2868741092
Bq        -0.8858749291     1.2180889041     1.0973303811
Bq        -0.8823349733     0.7832617340     0.1968234123
Bq        -0.8841049512     1.0006753191     0.6470768967
Bq        -0.8842880145     1.1342094287     0.6936452125
Bq        -0.8835800234     1.0472439947     0.5135438188
Bq        -0.8846420101     1.1776921457     0.7836959094
Bq        -0.8832260278     1.0037612777     0.4234931219
Bq        -0.8849960057     1.2211748627     0.8737466063
Bq        -0.8828720322     0.9602785607     0.3334424250
Bq        -0.8853500012     1.2646575797     0.9637973032
Bq        -0.8825180366     0.9167958437     0.2433917281
Bq        -0.8857039968     1.3081402968     1.0538480001
Bq        -0.8821640411     0.8733131267     0.1533410312
Bq        -0.8839340189     1.0907267117     0.6035945157
Bq        -0.8841170822     1.2242608214     0.6501628315
Bq        -0.8834090911     1.1372953874     0.4700614377
Bq        -0.8844710778     1.2677435384     0.7402135284
Bq        -0.8830550955     1.0938126704     0.3800107409
Bq        -0.8848250734     1.3112262554     0.8302642253
Bq        -0.8827010999     1.0503299534     0.2899600440
Bq        -0.8851790690     1.3547089724     0.9203149222
Bq        -0.8823471044     1.0068472364     0.1999093471
Bq        -0.8855330645     1.3981916894     1.0103656190
Bq        -0.8819931088     0.9633645194     0.1098586502
Bq        -0.8837630867     1.1807781044     0.5601121346
Bq        -0.8839461500     1.3143122141     0.6066804505
Bq        -0.8832381588     1.2273467801     0.4265790567
Bq        -0.8843001455     1.3577949311     0.6967311474
Bq        -0.8828841632     1.1838640631     0.3365283598
Bq        -0.8846541411     1.4012776481     0.7867818442
Bq        -0.8825301677     1.1403813461     0.2464776629
Bq        -0.8850081367     1.4447603651     0.8768325411
Bq        -0.8821761721     1.0968986291     0.1564269661
Bq        -0.8853621323     1.4882430821     0.9668832380
Bq        -0.8818221765     1.0534159120     0.0663762692
Bq        -0.8835921544     1.2708294971     0.5166297536
Bq        -0.8837752177     1.4043636067     0.5631980694
Bq        -0.8830672265     1.3173981727     0.3830966757
Bq        -0.8841292133     1.4478463237     0.6532487663
Bq        -0.8827132310     1.2739154557     0.2930459788
Bq        -0.8844832088     1.4913290408     0.7432994632
Bq        -0.8823592354     1.2304327387     0.2029952819
Bq        -0.8848372044     1.5348117578     0.8333501601
Bq        -0.8820052398     1.1869500217     0.1129445850
Bq        -0.8851912000     1.5782944748     0.9234008570
Bq        -0.8816512442     1.1434673047     0.0228938881
Bq        -0.8834212221     1.3608808897     0.4731473726
Bq        -0.8836042854     1.4944149994     0.5197156884
Bq        -0.8828962943     1.4074495654     0.3396142946
Bq        -0.8839582810     1.5378977164     0.6097663853
Bq        -0.8825422987     1.3639668484     0.2495635978
Bq        -0.8843122766     1.5813804334     0.6998170822
Bq        -0.8821883031     1.3204841314     0.1595129009
Bq        -0.8846662721     1.6248631504     0.7898677791
Bq        -0.8818343075     1.2770014144     0.0694622040
Bq        -0.8850202677     1.6683458674     0.8799184759
Bq        -0.8814803120     1.2335186974    -0.0205884929
Bq        -0.8832502898     1.4509322824     0.4296649915
Bq        -0.8834333531     1.5844663921     0.4762333074
Bq        -0.8827253620     1.4975009581     0.2961319136
Bq        -0.8837873487     1.6279491091     0.5662840043
Bq        -0.8823713664     1.4540182411     0.2060812167
Bq        -0.8841413443     1.6714318261     0.6563347011
Bq        -0.8820173708     1.4105355241     0.1160305198
Bq        -0.8844953399     1.7149145431     0.7463853980
Bq        -0.8816633753     1.3670528071     0.0259798230
Bq        -0.8848493354     1.7583972601     0.8364360949
Bq        -0.8813093797     1.3235700901    -0.0640708739
Bq        -0.8830793576     1.5409836751     0.3861826105
Bq        -0.8832624209     1.6745177848     0.4327509263
Bq        -0.8825544297     1.5875523507     0.2526495326
Bq        -0.8836164164     1.7180005018     0.5228016232
Bq        -0.8822004341     1.5440696337     0.1625988357
Bq        -0.8839704120     1.7614832188     0.6128523201
Bq        -0.8818464386     1.5005869167     0.0725481388
Bq        -0.8843244076     1.8049659358     0.7029030170
Bq        -0.8814924430     1.4571041997    -0.0175025581
Bq        -0.8846784032     1.8484486528     0.7929537139
Bq        -0.8811384474     1.4136214827    -0.1075532550
Bq        -0.8829084253     1.6310350678     0.3427002295
Bq        -0.8830914886     1.7645691774     0.3892685453
Bq        -0.8823834974     1.6776037434     0.2091671515
Bq        -0.8834454842     1.8080518944     0.4793192422
Bq        -0.8820295019     1.6341210264     0.1191164547
Bq        -0.8837994797     1.8515346114     0.5693699391
Bq        -0.8816755063     1.5906383094     0.0290657578
Bq        -0.8841534753     1.8950173284     0.6594206360
Bq        -0.8813215107     1.5471555924    -0.0609849391
Bq        -0.8845074709     1.9385000454     0.7494713328
Bq        -0.8809675151     1.5036728754    -0.1510356360
Bq        -0.8827374930     1.7210864604     0.2992178484
Bq        -0.8829205563     1.8546205701     0.3457861643
Bq        -0.8822125652     1.7676551361     0.1656847705
Bq        -0.8832745519     1.8981032871     0.4358368612
Bq        -0.8818585696     1.7241724191     0.0756340736
Bq        -0.8836285475     1.9415860041     0.5258875580
Bq        -0.8815045740     1.6806897021    -0.0144166233
Bq        -0.8839825430     1.9850687211     0.6159382549
Bq        -0.8811505784     1.6372069851    -0.1044673201
Bq        -0.8843365386     2.0285514381     0.7059889518
Bq        -0.8807965829     1.5937242681    -0.1945180170
Bq        -0.8825665607     1.8111378531     0.2557354674
Bq        -0.8827496240     1.9446719628     0.3023037832
Bq        -0.8820416329     1.8577065288     0.1222023895
Bq        -0.8831036196     1.9881546798     0.3923544801
Bq        -0.8816876373     1.8142238118     0.0321516926
Bq        -0.8834576152     2.0316373968     0.4824051770
Bq        -0.8813336417     1.7707410947    -0.0578990043
Bq        -0.8838116108     2.0751201138     0.5724558739
Bq        -0.8809796462     1.7272583777    -0.1479497012
Bq        -0.8841656063     2.1186028308     0.6625065708
Bq        -0.8806256506     1.6837756607    -0.2380003980
Bq        -0.8823956285     1.9011892458     0.2122530864
Bq        -0.8825786918     2.0347233554     0.2588214022
Bq        -0.8818707006     1.9477579214     0.0787200084
Bq        -0.8829326873     2.0782060724     0.3488720991
Bq        -0.8815167050     1.9042752044    -0.0113306884
Bq        -0.8832866829     2.1216887894     0.4389227960
Bq        -0.8811627095     1.8607924874    -0.1013813853
Bq        -0.8836406785     2.1651715065     0.5289734929
Bq        -0.8808087139     1.8173097704    -0.1914320822
Bq        -0.8839946741     2.2086542235     0.6190241897
Bq        -0.8804547183     1.7738270534    -0.2814827791
Bq        -0.8822246962     1.9912406384     0.1687707053
Bq        -0.8824077595     2.1247747481     0.2153390212
Bq        -0.8816997683     2.0378093141     0.0352376274
Bq        -0.8827617551     2.1682574651     0.3053897181
Bq        -0.8813457728     1.9943265971    -0.0548130695
Bq        -0.8831157506     2.2117401821     0.3954404149
Bq        -0.8809917772     1.9508438801    -0.1448637663
Bq        -0.8834697462     2.2552228991     0.4854911118
Bq        -0.8806377816     1.9073611631    -0.2349144632
Bq        -0.8838237418     2.2987056161     0.5755418087

1
2
3
4
5
6
7
8
9
10
11
12
13
14
15
16
17
18
19
20
21
22
23
24
25
26
27
28
29
30
31
32
33
34
35
36
37
38
39
40
41
42
43
44
45
46
47
48
49
50
51
52
53
54
55
56
57
58
59
60
61
62
63
64
65
66
67
68
69
70
71
72
73
74
75
76
77
78
79
80
81
82
83
84
85
86
87
88
89
90
91
92
93
94
95
96
97
98
99
100
101
102
103
104
105
106
107
108
109
110
111
112
113
114
115
116
117
118
119
120
121
122
123
124
125
126
127
128
129
130
131
132
133
134
135
136
137
138
139
140
141
142
143
144
145
146
147
148
149
150
151
152
153
154
155
156
157
158
159
160
161
162
163
164
165
166
167
168
169
170
171
172
173
174
175
176
177
178
179
180
181
182
183
184
185
186
187
188
189
190
191
192
193
194
195
196
197
198
199
200
201
202
203
204
205
206
207
208
209
210
211
212
213
214
215
216
217
218
219
220
221
222
223
224
225
226
227
228
229
230
231
232
233
234
235
236

