%nproc=8
%mem=1000MB
# rb3lyp/6-311+g** NMR geom=connectivity

Title

0 1
C    -4.0500558   -0.5771862    0.8136712
H    -5.0263804   -1.0082727    1.0024760
C    -3.9381552    0.6617804    0.2400876
H    -4.8252424    1.2338890   -0.0111295
C    -2.6768410    1.2433246    0.0057578
C    -1.4974121    0.5051527    0.2848253
C    -1.6508332   -0.7338728    0.9404026
H    -0.7713646   -1.2730967    1.2633753
C    -2.8898548   -1.2624035    1.1994307
H    -2.9683706   -2.2124563    1.7152676
C    -2.5773185    2.5963696   -0.4192930
H    -3.4870728    3.1412239   -0.6474055
C    -1.3741895    3.2147896   -0.4364030
H    -1.2997315    4.2742019   -0.6578144
C    -0.1719488    2.4994090   -0.1734588
C    -0.2043917    1.1018437    0.0192689
C     1.0513491    3.2042560   -0.0676222
H     1.0427344    4.2819499   -0.1896997
C     2.1942091    2.5487446    0.2579577
H     3.1168527    3.0912848    0.4334727
C     2.2216473    1.1336562    0.2934990
C     1.0486931    0.3945528    0.0302412
C     3.4483363    0.4614633    0.5573939
H     4.3095794    1.0606054    0.8334846
C     3.5427346   -0.8855926    0.4749463
H     4.4731467   -1.3939704    0.7038822
C     2.4490052   -1.6474447   -0.0196319
C     1.2150704   -1.0057258   -0.3013573
C     0.2531113   -1.7434440   -1.0216591
H    -0.6541356   -1.2535051   -1.3462847
C     0.4494193   -3.0628597   -1.3413779
H    -0.3083162   -3.5944309   -1.9054060
C     1.6251726   -3.7207967   -0.9552541
H     1.7670048   -4.7687404   -1.1927019
C     2.6109872   -3.0144177   -0.3183050
H     3.5525612   -3.4902813   -0.0646367
Bq         4.1474343597    -1.1780922835     1.4677332680
Bq         4.3528652743    -1.0642710113     0.7029830752
Bq         4.1217554954    -1.1923199426     1.5633270420
Bq         4.3785441386    -1.0500433523     0.6073893011
Bq         4.2501498170    -1.1211816474     1.0853581716
Bq         4.2207799021    -1.0364266124     1.1946924852
Bq         4.2721376308    -1.0079712944     1.0035049370
Bq         4.1951010378    -1.0506542714     1.2902862593
Bq         4.2978164951    -0.9937436353     0.9079111629
Bq         4.1694221735    -1.0648819305     1.3858800334
Bq         4.3234953594    -0.9795159763     0.8123173888
Bq         4.1437433092    -1.0791095895     1.4814738075
Bq         4.3491742237    -0.9652883173     0.7167236148
Bq         4.1180644448    -1.0933372485     1.5770675816
Bq         4.3748530881    -0.9510606583     0.6211298407
Bq         4.2464587664    -1.0221989534     1.0990987111
Bq         4.2170888516    -0.9374439184     1.2084330248
Bq         4.2684465802    -0.9089886003     1.0172454766
Bq         4.1914099873    -0.9516715774     1.3040267989
Bq         4.2941254446    -0.8947609413     0.9216517025
Bq         4.1657311229    -0.9658992364     1.3996205730
Bq         4.3198043089    -0.8805332823     0.8260579284
Bq         4.1400522586    -0.9801268955     1.4952143471
Bq         4.3454831732    -0.8663056232     0.7304641543
Bq         4.1143733943    -0.9943545545     1.5908081212
Bq         4.3711620375    -0.8520779642     0.6348703802
Bq         4.2427677159    -0.9232162594     1.1128392507
Bq         4.2133978011    -0.8384612243     1.2221735643
Bq         4.2647555297    -0.8100059063     1.0309860162
Bq         4.1877189367    -0.8526888834     1.3177673384
Bq         4.2904343940    -0.7957782473     0.9353922421
Bq         4.1620400724    -0.8669165424     1.4133611125
Bq         4.3161132583    -0.7815505882     0.8397984680
Bq         4.1363612081    -0.8811442014     1.5089548866
Bq         4.3417921227    -0.7673229292     0.7442046939
Bq         4.1106823438    -0.8953718605     1.6045486607
Bq         4.3674709870    -0.7530952702     0.6486109198
Bq         4.2390766654    -0.8242335653     1.1265797902
Bq         4.2097067505    -0.7394785303     1.2359141039
Bq         4.2610644792    -0.7110232123     1.0447265557
Bq         4.1840278862    -0.7537061893     1.3315078780
Bq         4.2867433435    -0.6967955532     0.9491327816
Bq         4.1583490219    -0.7679338484     1.4271016521
Bq         4.3124222078    -0.6825678942     0.8535390075
Bq         4.1326701575    -0.7821615074     1.5226954262
Bq         4.3381010721    -0.6683402352     0.7579452334
Bq         4.1069912932    -0.7963891664     1.6182892003
Bq         4.3637799365    -0.6541125761     0.6623514593
Bq         4.2353856148    -0.7252508713     1.1403203298
Bq         4.2060157000    -0.6404958363     1.2496546435
Bq         4.2573734286    -0.6120405182     1.0584670953
Bq         4.1803368357    -0.6547234953     1.3452484176
Bq         4.2830522929    -0.5978128592     0.9628733212
Bq         4.1546579713    -0.6689511543     1.4408421917
Bq         4.3087311573    -0.5835852002     0.8672795471
Bq         4.1289791070    -0.6831788134     1.5364359657
Bq         4.3344100216    -0.5693575411     0.7716857730
Bq         4.1033002427    -0.6974064724     1.6320297398
Bq         4.3600888859    -0.5551298821     0.6760919989
Bq         4.2316945643    -0.6262681772     1.1540608694
Bq         4.2023246494    -0.5415131422     1.2633951830
Bq         4.2536823781    -0.5130578242     1.0722076348
Bq         4.1766457851    -0.5557408013     1.3589889571
Bq         4.2793612424    -0.4988301652     0.9766138607
Bq         4.1509669208    -0.5699684603     1.4545827312
Bq         4.3050401067    -0.4846025061     0.8810200866
Bq         4.1252880565    -0.5841961193     1.5501765053
Bq         4.3307189711    -0.4703748471     0.7854263125
Bq         4.0996091922    -0.5984237784     1.6457702794
Bq         4.3563978354    -0.4561471881     0.6898325385
Bq         4.2280035138    -0.5272854832     1.1678014089
Bq         4.1986335989    -0.4425304482     1.2771357226
Bq         4.2499913276    -0.4140751301     1.0859481744
Bq         4.1729547346    -0.4567581072     1.3727294967
Bq         4.2756701919    -0.3998474711     0.9903544003
Bq         4.1472758703    -0.4709857663     1.4683232708
Bq         4.3013490562    -0.3856198121     0.8947606262
Bq         4.1215970059    -0.4852134253     1.5639170449
Bq         4.3270279205    -0.3713921531     0.7991668521
Bq         4.0959181416    -0.4994410843     1.6595108190
Bq         4.3527067848    -0.3571644940     0.7035730780
Bq         4.2243124632    -0.4283027892     1.1815419485
Bq         4.1949425484    -0.3435477542     1.2908762621
Bq         4.2463002770    -0.3150924361     1.0996887139
Bq         4.1692636841    -0.3577754132     1.3864700362
Bq         4.2719791413    -0.3008647771     1.0040949399
Bq         4.1435848197    -0.3720030722     1.4820638103
Bq         4.2976580057    -0.2866371181     0.9085011658
Bq         4.1179059554    -0.3862307313     1.5776575844
Bq         4.3233368700    -0.2724094590     0.8129073917
Bq         4.0922270911    -0.4004583903     1.6732513585
Bq         4.3490157343    -0.2581818000     0.7173136176
Bq         4.2206214127    -0.3293200951     1.1952824880
Bq         4.1912514978    -0.2445650601     1.3046168017
Bq         4.2426092265    -0.2161097421     1.1134292535
Bq         4.1655726335    -0.2587927192     1.4002105758
Bq         4.2682880908    -0.2018820830     1.0178354794
Bq         4.1398937692    -0.2730203782     1.4958043499
Bq         4.2939669551    -0.1876544240     0.9222417053
Bq         4.1142149049    -0.2872480372     1.5913981240
Bq         4.3196458195    -0.1734267650     0.8266479312
Bq         4.0885360405    -0.3014756962     1.6869918981
Bq         4.3453246838    -0.1591991060     0.7310541571
Bq         4.2169303622    -0.2303374011     1.2090230276
Bq         4.1875604473    -0.1455823661     1.3183573413
Bq         4.2389181759    -0.1171270480     1.1271697931
Bq         4.1618815830    -0.1598100251     1.4139511153
Bq         4.2645970403    -0.1028993890     1.0315760190
Bq         4.1362027187    -0.1740376842     1.5095448894
Bq         4.2902759046    -0.0886717300     0.9359822449
Bq         4.1105238543    -0.1882653432     1.6051386635
Bq         4.3159547689    -0.0744440710     0.8403884708
Bq         4.0848449900    -0.2024930022     1.7007324376
Bq         4.3416336332    -0.0602164119     0.7447946967
Bq         4.2132393116    -0.1313547071     1.2227635672
Bq         4.1838693968    -0.0465996721     1.3320978808
Bq         4.2352271254    -0.0181443540     1.1409103326
Bq         4.1581905324    -0.0608273311     1.4276916549
Bq         4.2609059897    -0.0039166950     1.0453165585
Bq         4.1325116681    -0.0750549901     1.5232854290
Bq         4.2865848541     0.0103109641     0.9497227844
Bq         4.1068328038    -0.0892826491     1.6188792031
Bq         4.3122637184     0.0245386231     0.8541290103
Bq         4.0811539395    -0.1035103082     1.7144729772
Bq         4.3379425827     0.0387662821     0.7585352362
Bq         4.2095482611    -0.0323720130     1.2365041067
Bq         4.1801783462     0.0523830220     1.3458384204
Bq         4.2315360749     0.0808383400     1.1546508722
Bq         4.1544994819     0.0381553629     1.4414321945
Bq         4.2572149392     0.0950659991     1.0590570981
Bq         4.1288206176     0.0239277039     1.5370259686
Bq         4.2828938035     0.1092936581     0.9634633240
Bq         4.1031417533     0.0097000449     1.6326197427
Bq         4.3085726678     0.1235213171     0.8678695499
Bq         4.0774628889    -0.0045276141     1.7282135168
Bq         4.3342515322     0.1377489761     0.7722757758
Bq         4.2058572106     0.0666106810     1.2502446463
Bq         4.1764872957     0.1513657160     1.3595789599
Bq         4.2278450243     0.1798210341     1.1683914117
Bq         4.1508084314     0.1371380570     1.4551727340
Bq         4.2535238887     0.1940486931     1.0727976376
Bq         4.1251295671     0.1229103980     1.5507665081
Bq         4.2792027530     0.2082763521     0.9772038636
Bq         4.0994507027     0.1086827389     1.6463602822
Bq         4.3048816173     0.2225040112     0.8816100895
Bq         4.0737718384     0.0944550799     1.7419540563
Bq         4.3305604816     0.2367316702     0.7860163154
Bq         4.2021661600     0.1655933750     1.2639851858
Bq         4.1727962452     0.2503484100     1.3733194995
Bq         4.2241539738     0.2788037281     1.1821319513
Bq         4.1471173808     0.2361207510     1.4689132736
Bq         4.2498328381     0.2930313871     1.0865381772
Bq         4.1214385165     0.2218930920     1.5645070477
Bq         4.2755117025     0.3072590462     0.9909444031
Bq         4.0957596522     0.2076654330     1.6601008218
Bq         4.3011905668     0.3214867052     0.8953506290
Bq         4.0700807879     0.1934377739     1.7556945959
Bq         4.3268694311     0.3357143642     0.7997568549
Bq         4.1984751095     0.2645760691     1.2777257254
Bq         4.1691051946     0.3493311041     1.3870600390
Bq         4.2204629233     0.3777864221     1.1958724909
Bq         4.1434263303     0.3351034451     1.4826538131
Bq         4.2461417876     0.3920140812     1.1002787168
Bq         4.1177474660     0.3208757860     1.5782475872
Bq         4.2718206519     0.4062417402     1.0046849427
Bq         4.0920686017     0.3066481270     1.6738413613
Bq         4.2974995162     0.4204693992     0.9090911686
Bq         4.0663897373     0.2924204680     1.7694351354
Bq         4.3231783806     0.4346970583     0.8134973945
Bq         4.1947840589     0.3635587631     1.2914662650
Bq         4.1654141441     0.4483137981     1.4008005786
Bq         4.2167718727     0.4767691162     1.2096130304
Bq         4.1397352798     0.4340861391     1.4963943527
Bq         4.2424507371     0.4909967752     1.1140192563
Bq         4.1140564154     0.4198584801     1.5919881268
Bq         4.2681296014     0.5052244342     1.0184254822
Bq         4.0883775511     0.4056308210     1.6875819009
Bq         4.2938084657     0.5194520933     0.9228317081
Bq         4.0626986868     0.3914031620     1.7831756750
Bq         4.3194873300     0.5336797523     0.8272379340
Bq         4.1910930084     0.4625414571     1.3052068045
Bq         4.1617230936     0.5472964922     1.4145411182
Bq         4.2130808222     0.5757518102     1.2233535700
Bq         4.1360442292     0.5330688331     1.5101348923
Bq         4.2387596865     0.5899794692     1.1277597959
Bq         4.1103653649     0.5188411741     1.6057286664
Bq         4.2644385508     0.6042071283     1.0321660218
Bq         4.0846865006     0.5046135151     1.7013224405
Bq         4.2901174152     0.6184347873     0.9365722477
Bq         4.0590076363     0.4903858560     1.7969162145
Bq         4.3157962795     0.6326624463     0.8409784736
Bq         4.1874019579     0.5615241512     1.3189473441
Bq         4.1580320430     0.6462791862     1.4282816577
Bq         4.2093897717     0.6747345042     1.2370941095
Bq         4.1323531787     0.6320515272     1.5238754318
Bq         4.2350686360     0.6889621633     1.1415003354
Bq         4.1066743144     0.6178238681     1.6194692059
Bq         4.2607475003     0.7031898223     1.0459065613
Bq         4.0809954501     0.6035962091     1.7150629800
Bq         4.2864263646     0.7174174813     0.9503127873

1
2
3
4
5
6
7
8
9
10
11
12
13
14
15
16
17
18
19
20
21
22
23
24
25
26
27
28
29
30
31
32
33
34
35
36
37
38
39
40
41
42
43
44
45
46
47
48
49
50
51
52
53
54
55
56
57
58
59
60
61
62
63
64
65
66
67
68
69
70
71
72
73
74
75
76
77
78
79
80
81
82
83
84
85
86
87
88
89
90
91
92
93
94
95
96
97
98
99
100
101
102
103
104
105
106
107
108
109
110
111
112
113
114
115
116
117
118
119
120
121
122
123
124
125
126
127
128
129
130
131
132
133
134
135
136
137
138
139
140
141
142
143
144
145
146
147
148
149
150
151
152
153
154
155
156
157
158
159
160
161
162
163
164
165
166
167
168
169
170
171
172
173
174
175
176
177
178
179
180
181
182
183
184
185
186
187
188
189
190
191
192
193
194
195
196
197
198
199
200
201
202
203
204
205
206
207
208
209
210
211
212
213
214
215
216
217
218
219
220
221
222
223
224
225
226
227
228
229
230
231
232
233
234
235
236

