%nproc=8
%mem=1000MB
# rb3lyp/6-311+g** NMR geom=connectivity

Title

0 1
C    -4.0500558   -0.5771862    0.8136712
H    -5.0263804   -1.0082727    1.0024760
C    -3.9381552    0.6617804    0.2400876
H    -4.8252424    1.2338890   -0.0111295
C    -2.6768410    1.2433246    0.0057578
C    -1.4974121    0.5051527    0.2848253
C    -1.6508332   -0.7338728    0.9404026
H    -0.7713646   -1.2730967    1.2633753
C    -2.8898548   -1.2624035    1.1994307
H    -2.9683706   -2.2124563    1.7152676
C    -2.5773185    2.5963696   -0.4192930
H    -3.4870728    3.1412239   -0.6474055
C    -1.3741895    3.2147896   -0.4364030
H    -1.2997315    4.2742019   -0.6578144
C    -0.1719488    2.4994090   -0.1734588
C    -0.2043917    1.1018437    0.0192689
C     1.0513491    3.2042560   -0.0676222
H     1.0427344    4.2819499   -0.1896997
C     2.1942091    2.5487446    0.2579577
H     3.1168527    3.0912848    0.4334727
C     2.2216473    1.1336562    0.2934990
C     1.0486931    0.3945528    0.0302412
C     3.4483363    0.4614633    0.5573939
H     4.3095794    1.0606054    0.8334846
C     3.5427346   -0.8855926    0.4749463
H     4.4731467   -1.3939704    0.7038822
C     2.4490052   -1.6474447   -0.0196319
C     1.2150704   -1.0057258   -0.3013573
C     0.2531113   -1.7434440   -1.0216591
H    -0.6541356   -1.2535051   -1.3462847
C     0.4494193   -3.0628597   -1.3413779
H    -0.3083162   -3.5944309   -1.9054060
C     1.6251726   -3.7207967   -0.9552541
H     1.7670048   -4.7687404   -1.1927019
C     2.6109872   -3.0144177   -0.3183050
H     3.5525612   -3.4902813   -0.0646367
Bq         4.3168806839     1.0848929394     1.2224052755
Bq         4.1884863623     1.0137546443     1.7003741459
Bq         4.3425595482     1.0991205984     1.1268115014
Bq         4.1628074980     0.9995269852     1.7959679200
Bq         4.3682384125     1.1133482575     1.0312177273
Bq         4.1371286336     0.9852993262     1.8915616941
Bq         4.3939172769     1.1275759165     0.9356239532
Bq         4.2655229552     1.0564376214     1.4135928237
Bq         4.2361530404     1.1411926564     1.5229271373
Bq         4.2875107690     1.1696479744     1.3317395891
Bq         4.2104741761     1.1269649973     1.6185209114
Bq         4.3131896334     1.1838756335     1.2361458150
Bq         4.1847953117     1.1127373383     1.7141146855
Bq         4.3388684977     1.1981032925     1.1405520409
Bq         4.1591164474     1.0985096793     1.8097084596
Bq         4.3645473620     1.2123309515     1.0449582668
Bq         4.1334375831     1.0842820203     1.9053022337
Bq         4.3902262263     1.2265586105     0.9493644927
Bq         4.2618319047     1.1554203154     1.4273333632
Bq         4.2324619899     1.2401753504     1.5366676769
Bq         4.2838197185     1.2686306685     1.3454801287
Bq         4.2067831255     1.2259476914     1.6322614510
Bq         4.3094985828     1.2828583275     1.2498863546
Bq         4.1811042612     1.2117200323     1.7278552251
Bq         4.3351774471     1.2970859865     1.1542925805
Bq         4.1554253969     1.1974923733     1.8234489992
Bq         4.3608563115     1.3113136455     1.0586988064
Bq         4.1297465326     1.1832647143     1.9190427732
Bq         4.3865351758     1.3255413046     0.9631050323
Bq         4.2581408542     1.2544030094     1.4410739028
Bq         4.2287709393     1.3391580444     1.5504082164
Bq         4.2801286680     1.3676133625     1.3592206682
Bq         4.2030920750     1.3249303854     1.6460019905
Bq         4.3058075323     1.3818410215     1.2636268941
Bq         4.1774132107     1.3107027264     1.7415957646
Bq         4.3314863966     1.3960686806     1.1680331200
Bq         4.1517343464     1.2964750674     1.8371895387
Bq         4.3571652609     1.4102963396     1.0724393460
Bq         4.1260554820     1.2822474083     1.9327833128
Bq         4.3828441253     1.4245239986     0.9768455719
Bq         4.2544498036     1.3533857035     1.4548144423
Bq         4.2250798888     1.4381407385     1.5641487560
Bq         4.2764376174     1.4665960565     1.3729612078
Bq         4.1994010245     1.4239130794     1.6597425301
Bq         4.3021164818     1.4808237156     1.2773674337
Bq         4.1737221601     1.4096854204     1.7553363042
Bq         4.3277953461     1.4950513746     1.1817736596
Bq         4.1480432958     1.3954577614     1.8509300783
Bq         4.3534742104     1.5092790336     1.0861798855
Bq         4.1223644315     1.3812301024     1.9465238524
Bq         4.3791530747     1.5235066926     0.9905861114
Bq         4.2507587531     1.4523683975     1.4685549819
Bq         4.2213888382     1.5371234325     1.5778892955
Bq         4.2727465669     1.5655787506     1.3867017474
Bq         4.1957099739     1.5228957735     1.6734830696
Bq         4.2984254312     1.5798064096     1.2911079733
Bq         4.1700311096     1.5086681145     1.7690768437
Bq         4.3241042955     1.5940340686     1.1955141992
Bq         4.1443522453     1.4944404554     1.8646706178
Bq         4.3497831599     1.6082617277     1.0999204251
Bq         4.1186733810     1.4802127964     1.9602643919
Bq         4.3754620242     1.6224893867     1.0043266510
Bq         4.2470677026     1.5513510915     1.4822955215
Bq         4.2176977877     1.6361061265     1.5916298351
Bq         4.2690555164     1.6645614446     1.4004422869
Bq         4.1920189234     1.6218784675     1.6872236092
Bq         4.2947343807     1.6787891036     1.3048485128
Bq         4.1663400591     1.6076508085     1.7828173833
Bq         4.3204132450     1.6930167627     1.2092547387
Bq         4.1406611947     1.5934231495     1.8784111574
Bq         4.3460921093     1.7072444217     1.1136609646
Bq         4.1149823304     1.5791954904     1.9740049315
Bq         4.3717709736     1.7214720807     1.0180671905
Bq         4.2433766520     1.6503337856     1.4960360610
Bq         4.2140067372     1.7350888206     1.6053703747
Bq         4.2653644658     1.7635441386     1.4141828265
Bq         4.1883278729     1.7208611616     1.7009641488
Bq         4.2910433301     1.7777717977     1.3185890524
Bq         4.1626490085     1.7066335025     1.7965579229
Bq         4.3167221945     1.7919994567     1.2229952783
Bq         4.1369701442     1.6924058435     1.8921516969
Bq         4.3424010588     1.8062271157     1.1274015042
Bq         4.1112912799     1.6781781845     1.9877454710
Bq         4.3680799231     1.8204547748     1.0318077301
Bq         4.2396856015     1.7493164796     1.5097766006
Bq         4.2103156866     1.8340715146     1.6191109142
Bq         4.2616734153     1.8625268327     1.4279233660
Bq         4.1846368223     1.8198438556     1.7147046883
Bq         4.2873522796     1.8767544917     1.3323295919
Bq         4.1589579580     1.8056161966     1.8102984624
Bq         4.3130311439     1.8909821507     1.2367358178
Bq         4.1332790937     1.7913885375     1.9058922365
Bq         4.3387100083     1.9052098098     1.1411420437
Bq         4.1076002294     1.7771608785     2.0014860106
Bq         4.3643888726     1.9194374688     1.0455482697
Bq         4.2359945510     1.8482991736     1.5235171401
Bq         4.2066246361     1.9330542087     1.6328514538
Bq         4.2579823648     1.9615095267     1.4416639056
Bq         4.1809457718     1.9188265496     1.7284452279
Bq         4.2836612291     1.9757371857     1.3460701315
Bq         4.1552669075     1.9045988906     1.8240390020
Bq         4.3093400934     1.9899648448     1.2504763574
Bq         4.1295880431     1.8903712316     1.9196327761
Bq         4.3350189577     2.0041925038     1.1548825833
Bq         4.1039091788     1.8761435725     2.0152265502
Bq         4.3606978220     2.0184201628     1.0592888092
Bq         4.2323035004     1.9472818677     1.5372576797
Bq         4.2029335856     2.0320369027     1.6465919933
Bq         4.2542913142     2.0604922207     1.4554044452
Bq         4.1772547212     2.0178092437     1.7421857674
Bq         4.2799701785     2.0747198798     1.3598106711
Bq         4.1515758569     2.0035815846     1.8377795415
Bq         4.3056490429     2.0889475388     1.2642168970
Bq         4.1258969926     1.9893539256     1.9333733156
Bq         4.3313279072     2.1031751978     1.1686231229
Bq         4.1002181283     1.9751262666     2.0289670897
Bq         4.3570067715     2.1174028569     1.0730293488
Bq         4.2286124499     2.0462645617     1.5509982192
Bq         4.1992425350     2.1310195967     1.6603325329
Bq         4.2506002637     2.1594749148     1.4691449847
Bq         4.1735636707     2.1167919377     1.7559263070
Bq         4.2762791280     2.1737025738     1.3735512106
Bq         4.1478848064     2.1025642787     1.8515200811
Bq         4.3019579923     2.1879302328     1.2779574365
Bq         4.1222059421     2.0883366196     1.9471138552
Bq         4.3276368566     2.2021578919     1.1823636624
Bq         4.0965270777     2.0741089606     2.0427076293
Bq         4.3533157210     2.2163855509     1.0867698883
Bq         4.2249213994     2.1452472558     1.5647387588
Bq         4.4803713119    -2.8181151051     0.9992483367
Bq         4.5317290405    -2.7896597870     0.8080607886
Bq         4.4546924475    -2.8323427641     1.0948421108
Bq         4.5574079048    -2.7754321280     0.7124670145
Bq         4.4290135832    -2.8465704231     1.1904358849
Bq         4.5830867691    -2.7612044690     0.6168732404
Bq         4.4033347189    -2.8607980821     1.2860296590
Bq         4.6087656335    -2.7469768099     0.5212794663
Bq         4.3776558546    -2.8750257412     1.3816234331
Bq         4.6344444978    -2.7327491509     0.4256856922
Bq         4.5060501762    -2.8038874460     0.9036545626
Bq         4.4766802613    -2.7191324110     1.0129888763
Bq         4.5280379900    -2.6906770930     0.8218013281
Bq         4.4510013970    -2.7333600701     1.1085826504
Bq         4.5537168543    -2.6764494339     0.7262075540
Bq         4.4253225327    -2.7475877291     1.2041764245
Bq         4.5793957186    -2.6622217749     0.6306137799
Bq         4.3996436683    -2.7618153881     1.2997701986
Bq         4.6050745829    -2.6479941159     0.5350200058
Bq         4.3739648040    -2.7760430471     1.3953639727
Bq         4.6307534473    -2.6337664569     0.4394262317
Bq         4.5023591256    -2.7049047520     0.9173951022
Bq         4.4729892108    -2.6201497170     1.0267294159
Bq         4.5243469394    -2.5916943989     0.8355418677
Bq         4.4473103465    -2.6343773760     1.1223231900
Bq         4.5500258037    -2.5774667399     0.7399480936
Bq         4.4216314821    -2.6486050350     1.2179169641
Bq         4.5757046681    -2.5632390809     0.6443543195
Bq         4.3959526178    -2.6628326941     1.3135107381
Bq         4.6013835324    -2.5490114219     0.5487605454
Bq         4.3702737535    -2.6770603531     1.4091045122
Bq         4.6270623967    -2.5347837628     0.4531667713
Bq         4.4986680751    -2.6059220580     0.9311356418
Bq         4.4692981602    -2.5211670230     1.0404699554
Bq         4.5206558889    -2.4927117049     0.8492824072
Bq         4.4436192959    -2.5353946820     1.1360637295
Bq         4.5463347532    -2.4784840459     0.7536886331
Bq         4.4179404316    -2.5496223410     1.2316575036
Bq         4.5720136175    -2.4642563868     0.6580948590
Bq         4.3922615673    -2.5638500000     1.3272512777
Bq         4.5976924819    -2.4500287278     0.5625010849
Bq         4.3665827030    -2.5780776591     1.4228450518
Bq         4.6233713462    -2.4358010688     0.4669073109
Bq         4.4949770246    -2.5069393639     0.9448761813
Bq         4.4656071097    -2.4221843289     1.0542104950
Bq         4.5169648384    -2.3937290109     0.8630229468
Bq         4.4399282454    -2.4364119879     1.1498042691
Bq         4.5426437027    -2.3795013518     0.7674291727
Bq         4.4142493811    -2.4506396470     1.2453980432
Bq         4.5683225670    -2.3652736928     0.6718353986
Bq         4.3885705167    -2.4648673060     1.3409918173
Bq         4.5940014313    -2.3510460338     0.5762416245
Bq         4.3628916524    -2.4790949650     1.4365855914
Bq         4.6196802956    -2.3368183748     0.4806478504
Bq         4.4912859740    -2.4079566699     0.9586167209
Bq         4.4619160592    -2.3232016349     1.0679510345
Bq         4.5132737878    -2.2947463168     0.8767634863
Bq         4.4362371949    -2.3374292939     1.1635448086
Bq         4.5389526521    -2.2805186578     0.7811697123
Bq         4.4105583305    -2.3516569529     1.2591385827
Bq         4.5646315165    -2.2662909988     0.6855759382
Bq         4.3848794662    -2.3658846120     1.3547323568
Bq         4.5903103808    -2.2520633397     0.5899821641
Bq         4.3592006019    -2.3801122710     1.4503261309
Bq         4.6159892451    -2.2378356807     0.4943883900
Bq         4.4875949235    -2.3089739759     0.9723572604
Bq         4.4582250086    -2.2242189408     1.0816915741
Bq         4.5095827373    -2.1957636228     0.8905040259
Bq         4.4325461443    -2.2384465999     1.1772853482
Bq         4.5352616016    -2.1815359638     0.7949102518
Bq         4.4068672800    -2.2526742589     1.2728791223

1
2
3
4
5
6
7
8
9
10
11
12
13
14
15
16
17
18
19
20
21
22
23
24
25
26
27
28
29
30
31
32
33
34
35
36
37
38
39
40
41
42
43
44
45
46
47
48
49
50
51
52
53
54
55
56
57
58
59
60
61
62
63
64
65
66
67
68
69
70
71
72
73
74
75
76
77
78
79
80
81
82
83
84
85
86
87
88
89
90
91
92
93
94
95
96
97
98
99
100
101
102
103
104
105
106
107
108
109
110
111
112
113
114
115
116
117
118
119
120
121
122
123
124
125
126
127
128
129
130
131
132
133
134
135
136
137
138
139
140
141
142
143
144
145
146
147
148
149
150
151
152
153
154
155
156
157
158
159
160
161
162
163
164
165
166
167
168
169
170
171
172
173
174
175
176
177
178
179
180
181
182
183
184
185
186
187
188
189
190
191
192
193
194
195
196
197
198
199
200
201
202
203
204
205
206
207
208
209
210
211
212
213
214
215
216
217
218
219
220
221
222
223
224
225
226
227
228
229
230
231
232
233
234
235
236

