%nproc=8
%mem=1000MB
# rb3lyp/6-311+g** NMR geom=connectivity

Title

0 1
C    -4.0500558   -0.5771862    0.8136712
H    -5.0263804   -1.0082727    1.0024760
C    -3.9381552    0.6617804    0.2400876
H    -4.8252424    1.2338890   -0.0111295
C    -2.6768410    1.2433246    0.0057578
C    -1.4974121    0.5051527    0.2848253
C    -1.6508332   -0.7338728    0.9404026
H    -0.7713646   -1.2730967    1.2633753
C    -2.8898548   -1.2624035    1.1994307
H    -2.9683706   -2.2124563    1.7152676
C    -2.5773185    2.5963696   -0.4192930
H    -3.4870728    3.1412239   -0.6474055
C    -1.3741895    3.2147896   -0.4364030
H    -1.2997315    4.2742019   -0.6578144
C    -0.1719488    2.4994090   -0.1734588
C    -0.2043917    1.1018437    0.0192689
C     1.0513491    3.2042560   -0.0676222
H     1.0427344    4.2819499   -0.1896997
C     2.1942091    2.5487446    0.2579577
H     3.1168527    3.0912848    0.4334727
C     2.2216473    1.1336562    0.2934990
C     1.0486931    0.3945528    0.0302412
C     3.4483363    0.4614633    0.5573939
H     4.3095794    1.0606054    0.8334846
C     3.5427346   -0.8855926    0.4749463
H     4.4731467   -1.3939704    0.7038822
C     2.4490052   -1.6474447   -0.0196319
C     1.2150704   -1.0057258   -0.3013573
C     0.2531113   -1.7434440   -1.0216591
H    -0.6541356   -1.2535051   -1.3462847
C     0.4494193   -3.0628597   -1.3413779
H    -0.3083162   -3.5944309   -1.9054060
C     1.6251726   -3.7207967   -0.9552541
H     1.7670048   -4.7687404   -1.1927019
C     2.6109872   -3.0144177   -0.3183050
H     3.5525612   -3.4902813   -0.0646367
Bq         0.1130684036     3.1220004867     0.0639882036
Bq         0.0117367323     3.1563948823     0.7557605057
Bq         0.1275443567     3.1170870017    -0.0348364109
Bq        -0.0027392207     3.1613083674     0.8545851203
Bq         0.1420203097     3.1121735166    -0.1336610255
Bq         0.0696405445     3.1367409420     0.3604620474
Bq         0.0558767254     3.2415336424     0.4544250572
Bq         0.0848286315     3.2317066723     0.2567758280
Bq         0.0414007724     3.2464471275     0.5532496718
Bq         0.0993045845     3.2267931872     0.1579512135
Bq         0.0269248193     3.2513606126     0.6520742864
Bq         0.1137805376     3.2218797021     0.0591265989
Bq         0.0124488663     3.2562740977     0.7508989010
Bq         0.1282564906     3.2169662170    -0.0396980157
Bq        -0.0020270868     3.2611875828     0.8497235156
Bq         0.1427324437     3.2120527319    -0.1385226303
Bq         0.0703526785     3.2366201574     0.3556004426
Bq         0.0565888593     3.3414128578     0.4495634525
Bq         0.0855407654     3.3315858877     0.2519142233
Bq         0.0421129063     3.3463263429     0.5483880670
Bq         0.1000167185     3.3266724026     0.1530896087
Bq         0.0276369533     3.3512398280     0.6472126816
Bq         0.1144926715     3.3217589175     0.0542649941
Bq         0.0131610002     3.3561533131     0.7460372962
Bq         0.1289686246     3.3168454324    -0.0445596205
Bq        -0.0013149528     3.3610667981     0.8448619108
Bq         0.1434445776     3.3119319473    -0.1433842351
Bq         0.0710648124     3.3364993727     0.3507388379
Bq         0.0573009933     3.4412920732     0.4447018477
Bq         0.0862528994     3.4314651030     0.2470526185
Bq         0.0428250402     3.4462055583     0.5435264623
Bq         0.1007288524     3.4265516179     0.1482280039
Bq         0.0283490872     3.4511190434     0.6423510769
Bq         0.1152048055     3.4216381329     0.0494033893
Bq         0.0138731342     3.4560325284     0.7411756914
Bq         0.1296807585     3.4167246478    -0.0494212252
Bq        -0.0006028189     3.4609460135     0.8400003060
Bq         0.1441567116     3.4118111627    -0.1482458398
Bq         0.0717769463     3.4363785881     0.3458772331
Bq         0.0580131272     3.5411712886     0.4398402429
Bq         0.0869650333     3.5313443184     0.2421910137
Bq         0.0435371742     3.5460847737     0.5386648575
Bq         0.1014409864     3.5264308333     0.1433663992
Bq         0.0290612211     3.5509982587     0.6374894721
Bq         0.1159169394     3.5215173482     0.0445417846
Bq         0.0145852681     3.5559117438     0.7363140867
Bq         0.1303928925     3.5166038632    -0.0542828300
Bq         0.0001093151     3.5608252289     0.8351387013
Bq         0.1448688455     3.5116903781    -0.1531074446
Bq         0.0724890803     3.5362578035     0.3410156283
Bq         0.0587252612     3.6410505039     0.4349786382
Bq         0.0876771673     3.6312235338     0.2373294090
Bq         0.0442493081     3.6459639890     0.5338032527
Bq         0.1021531203     3.6263100487     0.1385047944
Bq         0.0297733551     3.6508774741     0.6326278673
Bq         0.1166290734     3.6213965636     0.0396801798
Bq         0.0152974020     3.6557909592     0.7314524819
Bq         0.1311050264     3.6164830785    -0.0591444348
Bq         0.0008214490     3.6607044443     0.8302770965
Bq         0.1455809794     3.6115695935    -0.1579690494
Bq         0.0732012142     3.6361370189     0.3361540236
Bq         0.0594373951     3.7409297193     0.4301170334
Bq         0.0883893012     3.7311027492     0.2324678042
Bq         0.0449614421     3.7458432044     0.5289416480
Bq         0.1028652542     3.7261892641     0.1336431896
Bq         0.0304854890     3.7507566895     0.6277662626
Bq         0.1173412073     3.7212757790     0.0348185750
Bq         0.0160095360     3.7556701746     0.7265908771
Bq         0.1318171603     3.7163622939    -0.0640060395
Bq         0.0015335829     3.7605836597     0.8254154917
Bq         0.1462931134     3.7114488088    -0.1628306541
Bq         0.0739133482     3.7360162342     0.3312924188
Bq         0.0601495291     3.8408089347     0.4252554286
Bq         0.0891014351     3.8309819645     0.2276061995
Bq         0.0456735760     3.8457224198     0.5240800432
Bq         0.1035773882     3.8260684795     0.1287815849
Bq         0.0311976230     3.8506359049     0.6229046578
Bq         0.1180533412     3.8211549944     0.0299569703
Bq         0.0167216699     3.8555493900     0.7217292724
Bq         0.1325292943     3.8162415093    -0.0688676443
Bq         0.0022457169     3.8604628750     0.8205538870
Bq         0.1470052473     3.8113280242    -0.1676922589
Bq         0.0746254821     3.8358954496     0.3264308140
Bq         0.0608616630     3.9406881501     0.4203938239
Bq         0.0898135691     3.9308611799     0.2227445947
Bq         0.0463857100     3.9456016352     0.5192184384
Bq         0.1042895221     3.9259476948     0.1239199801
Bq         0.0319097569     3.9505151202     0.6180430530
Bq         0.1187654752     3.9210342098     0.0250953655
Bq         0.0174338039     3.9554286053     0.7168676676
Bq         0.1332414282     3.9161207247    -0.0737292491
Bq         0.0029578508     3.9603420904     0.8156922822
Bq         0.1477173813     3.9112072396    -0.1725538637
Bq         0.0753376160     3.9357746650     0.3215692093
Bq         0.0615737969     4.0405673655     0.4155322191
Bq         0.0905257030     4.0307403953     0.2178829899
Bq         0.0470978439     4.0454808505     0.5143568337
Bq         0.1050016561     4.0258269102     0.1190583753
Bq         0.0326218909     4.0503943356     0.6131814483
Bq         0.1194776091     4.0209134251     0.0202337607
Bq         0.0181459378     4.0553078207     0.7120060628
Bq         0.1339535622     4.0159999400    -0.0785908538
Bq         0.0036699848     4.0602213058     0.8108306774
Bq         0.1484295152     4.0110864550    -0.1774154684
Bq         0.0760497500     4.0356538804     0.3167076045
Bq         0.0622859309     4.1404465808     0.4106706143
Bq         0.0912378370     4.1306196107     0.2130213852
Bq         0.0478099778     4.1453600659     0.5094952289
Bq         0.1057137900     4.1257061256     0.1141967706
Bq         0.0333340248     4.1502735510     0.6083198435
Bq         0.1201897431     4.1207926405     0.0153721560
Bq         0.0188580717     4.1551870361     0.7071444581
Bq         0.1346656961     4.1158791554    -0.0834524586
Bq         0.0043821187     4.1601005212     0.8059690727
Bq         0.1491416491     4.1109656703    -0.1822770732
Bq         0.0767618839     4.1355330958     0.3118459997
Bq         0.0629980648     4.2403257962     0.4058090096
Bq         0.0919499709     4.2304988260     0.2081597804
Bq         0.0485221118     4.2452392813     0.5046336241
Bq         0.1064259240     4.2255853410     0.1093351658
Bq         0.0340461587     4.2501527664     0.6034582387
Bq         0.1209018770     4.2206718559     0.0105105512
Bq         0.0195702057     4.2550662515     0.7022828533
Bq         0.1353778300     4.2157583708    -0.0883140634
Bq         0.0050942526     4.2599797365     0.8011074679
Bq         0.1498537831     4.2108448857    -0.1871386780
Bq         0.0774740179     4.2354123111     0.3069843950
Bq         0.0637101988     4.3402050116     0.4009474048
Bq         0.0926621049     4.3303780414     0.2032981756
Bq         0.0492342457     4.3451184967     0.4997720194
Bq         0.1071380579     4.3254645563     0.1044735610
Bq         0.0347582927     4.3500319818     0.5985966340
Bq         0.1216140109     4.3205510713     0.0056489464
Bq         0.0202823396     4.3549454668     0.6974212485
Bq         0.1360899640     4.3156375862    -0.0931756681
Bq         0.0058063866     4.3598589519     0.7962458631
Bq         0.1505659170     4.3107241011    -0.1920002827
Bq         0.0781861518     4.3352915265     0.3021227902
Bq         0.1270476256    -0.6537557573     0.6585211020
Bq         0.1559995316    -0.6635827274     0.4608718729
Bq         0.1125716725    -0.6488422722     0.7573457166
Bq         0.1704754847    -0.6684962125     0.3620472583
Bq         0.0980957195    -0.6439287871     0.8561703312
Bq         0.1849514377    -0.6734096976     0.2632226437
Bq         0.0836197664    -0.6390153020     0.9549949458
Bq         0.1994273908    -0.6783231827     0.1643980291
Bq         0.0691438134    -0.6341018169     1.0538195604
Bq         0.2139033438    -0.6832366678     0.0655734145
Bq         0.1415235786    -0.6586692423     0.5596964874
Bq         0.1277597595    -0.5538765419     0.6536594973
Bq         0.1567116656    -0.5637035121     0.4560102681
Bq         0.1132838065    -0.5489630568     0.7524841118
Bq         0.1711876186    -0.5686169971     0.3571856535
Bq         0.0988078534    -0.5440495717     0.8513087264
Bq         0.1856635717    -0.5735304822     0.2583610389
Bq         0.0843319004    -0.5391360866     0.9501333410
Bq         0.2001395247    -0.5784439673     0.1595364243
Bq         0.0698559473    -0.5342226016     1.0489579556
Bq         0.2146154778    -0.5833574524     0.0607118098
Bq         0.1422357125    -0.5587900270     0.5548348827
Bq         0.1284718934    -0.4539973265     0.6487978925
Bq         0.1574237995    -0.4638242967     0.4511486633
Bq         0.1139959404    -0.4490838414     0.7476225071
Bq         0.1718997526    -0.4687377818     0.3523240487
Bq         0.0995199873    -0.4441703563     0.8464471217
Bq         0.1863757056    -0.4736512668     0.2534994342
Bq         0.0850440343    -0.4392568713     0.9452717362
Bq         0.2008516587    -0.4785647519     0.1546748196
Bq         0.0705680813    -0.4343433862     1.0440963508
Bq         0.2153276117    -0.4834782370     0.0558502050
Bq         0.1429478465    -0.4589108116     0.5499732779
Bq         0.1291840274    -0.3541181111     0.6439362877
Bq         0.1581359335    -0.3639450813     0.4462870586
Bq         0.1147080743    -0.3492046261     0.7427609023
Bq         0.1726118865    -0.3688585664     0.3474624440
Bq         0.1002321213    -0.3442911410     0.8415855169
Bq         0.1870878396    -0.3737720515     0.2486378294
Bq         0.0857561682    -0.3393776559     0.9404101315
Bq         0.2015637926    -0.3786855365     0.1498132148
Bq         0.0712802152    -0.3344641708     1.0392347461
Bq         0.2160397456    -0.3835990216     0.0509886002
Bq         0.1436599804    -0.3590315962     0.5451116731
Bq         0.1298961613    -0.2542388958     0.6390746830
Bq         0.1588480674    -0.2640658659     0.4414254538
Bq         0.1154202083    -0.2493254107     0.7378992975
Bq         0.1733240205    -0.2689793510     0.3426008392
Bq         0.1009442552    -0.2444119256     0.8367239121
Bq         0.1877999735    -0.2738928361     0.2437762246
Bq         0.0864683022    -0.2394984405     0.9355485267
Bq         0.2022759265    -0.2788063212     0.1449516100
Bq         0.0719923491    -0.2345849554     1.0343731413
Bq         0.2167518796    -0.2837198063     0.0461269955
Bq         0.1443721144    -0.2591523808     0.5402500684
Bq         0.1306082953    -0.1543596804     0.6342130782
Bq         0.1595602014    -0.1641866505     0.4365638490
Bq         0.1161323422    -0.1494461953     0.7330376928
Bq         0.1740361544    -0.1691001356     0.3377392344
Bq         0.1016563892    -0.1445327102     0.8318623074
Bq         0.1885121074    -0.1740136207     0.2389146199
Bq         0.0871804361    -0.1396192251     0.9306869219

1
2
3
4
5
6
7
8
9
10
11
12
13
14
15
16
17
18
19
20
21
22
23
24
25
26
27
28
29
30
31
32
33
34
35
36
37
38
39
40
41
42
43
44
45
46
47
48
49
50
51
52
53
54
55
56
57
58
59
60
61
62
63
64
65
66
67
68
69
70
71
72
73
74
75
76
77
78
79
80
81
82
83
84
85
86
87
88
89
90
91
92
93
94
95
96
97
98
99
100
101
102
103
104
105
106
107
108
109
110
111
112
113
114
115
116
117
118
119
120
121
122
123
124
125
126
127
128
129
130
131
132
133
134
135
136
137
138
139
140
141
142
143
144
145
146
147
148
149
150
151
152
153
154
155
156
157
158
159
160
161
162
163
164
165
166
167
168
169
170
171
172
173
174
175
176
177
178
179
180
181
182
183
184
185
186
187
188
189
190
191
192
193
194
195
196
197
198
199
200
201
202
203
204
205
206
207
208
209
210
211
212
213
214
215
216
217
218
219
220
221
222
223
224
225
226
227
228
229
230
231
232
233
234
235
236

