%nproc=8
%mem=1000MB
# rb3lyp/6-311+g** NMR geom=connectivity

Title

0 1
C    -4.0500558   -0.5771862    0.8136712
H    -5.0263804   -1.0082727    1.0024760
C    -3.9381552    0.6617804    0.2400876
H    -4.8252424    1.2338890   -0.0111295
C    -2.6768410    1.2433246    0.0057578
C    -1.4974121    0.5051527    0.2848253
C    -1.6508332   -0.7338728    0.9404026
H    -0.7713646   -1.2730967    1.2633753
C    -2.8898548   -1.2624035    1.1994307
H    -2.9683706   -2.2124563    1.7152676
C    -2.5773185    2.5963696   -0.4192930
H    -3.4870728    3.1412239   -0.6474055
C    -1.3741895    3.2147896   -0.4364030
H    -1.2997315    4.2742019   -0.6578144
C    -0.1719488    2.4994090   -0.1734588
C    -0.2043917    1.1018437    0.0192689
C     1.0513491    3.2042560   -0.0676222
H     1.0427344    4.2819499   -0.1896997
C     2.1942091    2.5487446    0.2579577
H     3.1168527    3.0912848    0.4334727
C     2.2216473    1.1336562    0.2934990
C     1.0486931    0.3945528    0.0302412
C     3.4483363    0.4614633    0.5573939
H     4.3095794    1.0606054    0.8334846
C     3.5427346   -0.8855926    0.4749463
H     4.4731467   -1.3939704    0.7038822
C     2.4490052   -1.6474447   -0.0196319
C     1.2150704   -1.0057258   -0.3013573
C     0.2531113   -1.7434440   -1.0216591
H    -0.6541356   -1.2535051   -1.3462847
C     0.4494193   -3.0628597   -1.3413779
H    -0.3083162   -3.5944309   -1.9054060
C     1.6251726   -3.7207967   -0.9552541
H     1.7670048   -4.7687404   -1.1927019
C     2.6109872   -3.0144177   -0.3183050
H     3.5525612   -3.4902813   -0.0646367
Bq        -2.6877170142    -0.2196474200     1.5623888319
Bq        -2.6855930408    -0.4805437220     1.0220846506
Bq        -2.6880710098    -0.1761647030     1.6524395287
Bq        -2.6852390452    -0.5240264390     0.9320339537
Bq        -2.6884250054    -0.1326819860     1.7424902256
Bq        -2.6848850496    -0.5675091560     0.8419832568
Bq        -2.6866550275    -0.3500955710     1.2922367412
Bq        -2.6868380908    -0.2165614613     1.3388050571
Bq        -2.6861300997    -0.3035268953     1.1587036633
Bq        -2.6871920864    -0.1730787443     1.4288557539
Bq        -2.6857761041    -0.3470096123     1.0686529664
Bq        -2.6875460820    -0.1295960273     1.5189064508
Bq        -2.6854221085    -0.3904923293     0.9786022695
Bq        -2.6879000775    -0.0861133103     1.6089571477
Bq        -2.6850681129    -0.4339750463     0.8885515727
Bq        -2.6882540731    -0.0426305933     1.6990078446
Bq        -2.6847141174    -0.4774577634     0.7985008758
Bq        -2.6864840952    -0.2600441783     1.2487543602
Bq        -2.6866671585    -0.1265100687     1.2953226760
Bq        -2.6859591674    -0.2134755027     1.1152212823
Bq        -2.6870211541    -0.0830273517     1.3853733729
Bq        -2.6856051718    -0.2569582197     1.0251705854
Bq        -2.6873751497    -0.0395446346     1.4754240698
Bq        -2.6852511762    -0.3004409367     0.9351198885
Bq        -2.6877291453     0.0039380824     1.5654747667
Bq        -2.6848971807    -0.3439236537     0.8450691916
Bq        -2.6880831408     0.0474207994     1.6555254636
Bq        -2.6845431851    -0.3874063707     0.7550184947
Bq        -2.6863131630    -0.1699927857     1.2052719792
Bq        -2.6864962263    -0.0364586760     1.2518402950
Bq        -2.6857882351    -0.1234241100     1.0717389012
Bq        -2.6868502218     0.0070240410     1.3418909919
Bq        -2.6854342395    -0.1669068270     0.9816882044
Bq        -2.6872042174     0.0505067580     1.4319416888
Bq        -2.6850802440    -0.2103895440     0.8916375075
Bq        -2.6875582130     0.0939894750     1.5219923856
Bq        -2.6847262484    -0.2538722610     0.8015868106
Bq        -2.6879122086     0.1374721920     1.6120430825
Bq        -2.6843722528    -0.2973549780     0.7115361137
Bq        -2.6861422307    -0.0799413930     1.1617895981
Bq        -2.6863252940     0.0535927167     1.2083579140
Bq        -2.6856173028    -0.0333727173     1.0282565202
Bq        -2.6866792896     0.0970754337     1.2984086109
Bq        -2.6852633073    -0.0768554343     0.9382058233
Bq        -2.6870332851     0.1405581507     1.3884593077
Bq        -2.6849093117    -0.1203381513     0.8481551264
Bq        -2.6873872807     0.1840408677     1.4785100046
Bq        -2.6845553161    -0.1638208683     0.7581044296
Bq        -2.6877412763     0.2275235847     1.5685607015
Bq        -2.6842013205    -0.2073035853     0.6680537327
Bq        -2.6859712984     0.0101099997     1.1183072171
Bq        -2.6861543617     0.1436441094     1.1648755329
Bq        -2.6854463706     0.0566786753     0.9847741392
Bq        -2.6865083573     0.1871268264     1.2549262298
Bq        -2.6850923750     0.0131959583     0.8947234423
Bq        -2.6868623529     0.2306095434     1.3449769267
Bq        -2.6847383794    -0.0302867587     0.8046727454
Bq        -2.6872163484     0.2740922604     1.4350276236
Bq        -2.6843843838    -0.0737694757     0.7146220485
Bq        -2.6875703440     0.3175749774     1.5250783205
Bq        -2.6840303883    -0.1172521927     0.6245713516
Bq        -2.6858003661     0.1001613924     1.0748248361
Bq        -2.6859834294     0.2336955020     1.1213931519
Bq        -2.6852754383     0.1467300680     0.9412917581
Bq        -2.6863374250     0.2771782190     1.2114438488
Bq        -2.6849214427     0.1032473510     0.8512410613
Bq        -2.6866914206     0.3206609360     1.3014945457
Bq        -2.6845674471     0.0597646340     0.7611903644
Bq        -2.6870454162     0.3641436530     1.3915452426
Bq        -2.6842134516     0.0162819170     0.6711396675
Bq        -2.6873994117     0.4076263700     1.4815959394
Bq        -2.6838594560    -0.0272008000     0.5810889706
Bq        -2.6856294339     0.1902127850     1.0313424550
Bq        -2.6858124972     0.3237468947     1.0779107709
Bq        -2.6851045060     0.2367814607     0.8978093771
Bq        -2.6861664927     0.3672296117     1.1679614678
Bq        -2.6847505104     0.1932987437     0.8077586802
Bq        -2.6865204883     0.4107123287     1.2580121646
Bq        -2.6843965149     0.1498160267     0.7177079833
Bq        -2.6868744839     0.4541950457     1.3480628615
Bq        -2.6840425193     0.1063333097     0.6276572865
Bq        -2.6872284795     0.4976777627     1.4381135584
Bq        -2.6836885237     0.0628505927     0.5376065896
Bq        -2.6854585016     0.2802641777     0.9878600740
Bq        -2.6856415649     0.4137982874     1.0344283898
Bq        -2.6849335737     0.3268328534     0.8543269961
Bq        -2.6859955605     0.4572810044     1.1244790867
Bq        -2.6845795782     0.2833501364     0.7642762992
Bq        -2.6863495560     0.5007637214     1.2145297836
Bq        -2.6842255826     0.2398674194     0.6742256023
Bq        -2.6867035516     0.5442464384     1.3045804805
Bq        -2.6838715870     0.1963847023     0.5841749054
Bq        -2.6870575472     0.5877291554     1.3946311774
Bq        -2.6835175914     0.1529019853     0.4941242085
Bq        -2.6852875693     0.3703155704     0.9443776930
Bq        -2.6854706326     0.5038496800     0.9909460088
Bq        -2.6847626415     0.4168842460     0.8108446150
Bq        -2.6858246282     0.5473323970     1.0809967057
Bq        -2.6844086459     0.3734015290     0.7207939182
Bq        -2.6861786238     0.5908151140     1.1710474026
Bq        -2.6840546503     0.3299188120     0.6307432213
Bq        -2.6865326193     0.6342978311     1.2610980995
Bq        -2.6837006547     0.2864360950     0.5406925244
Bq        -2.6868866149     0.6777805481     1.3511487963
Bq        -2.6833466592     0.2429533780     0.4506418275
Bq        -2.6851166370     0.4603669630     0.9008953119
Bq        -2.6852997003     0.5939010727     0.9474636278
Bq        -2.6845917092     0.5069356387     0.7673622340
Bq        -2.6856536959     0.6373837897     1.0375143247
Bq        -2.6842377136     0.4634529217     0.6773115371
Bq        -2.6860076915     0.6808665067     1.1275650215
Bq        -2.6838837180     0.4199702047     0.5872608402
Bq        -2.6863616871     0.7243492237     1.2176157184
Bq        -2.6835297225     0.3764874877     0.4972101434
Bq        -2.6867156826     0.7678319407     1.3076664153
Bq        -2.6831757269     0.3330047707     0.4071594465
Bq        -2.6849457048     0.5504183557     0.8574129309
Bq        -2.6851287681     0.6839524654     0.9039812467
Bq        -2.6844207769     0.5969870314     0.7238798530
Bq        -2.6854827636     0.7274351824     0.9940319436
Bq        -2.6840667813     0.5535043144     0.6338291561
Bq        -2.6858367592     0.7709178994     1.0840826405
Bq        -2.6837127858     0.5100215974     0.5437784592
Bq        -2.6861907548     0.8144006164     1.1741333374
Bq        -2.6833587902     0.4665388804     0.4537277623
Bq        -2.6865447504     0.8578833334     1.2641840343
Bq        -2.6830047946     0.4230561634     0.3636770654
Bq        -2.6847747725     0.6404697484     0.8139305499
Bq        -2.6849578358     0.7740038581     0.8604988657
Bq        -2.6842498446     0.6870384240     0.6803974719
Bq        -2.6853118314     0.8174865751     0.9505495626
Bq        -2.6838958491     0.6435557070     0.5903467751
Bq        -2.6856658269     0.8609692921     1.0406002595
Bq        -2.6835418535     0.6000729900     0.5002960782
Bq        -2.6860198225     0.9044520091     1.1306509564
Bq        -2.6831878579     0.5565902730     0.4102453813
Bq        -2.6863738181     0.9479347261     1.2207016532
Bq        -2.6828338623     0.5131075560     0.3201946844
Bq        -2.6846038402     0.7305211410     0.7704481688
Bq        -2.6847869035     0.8640552507     0.8170164847
Bq        -2.6840789124     0.7770898167     0.6369150909
Bq        -2.6851408991     0.9075379677     0.9070671816
Bq        -2.6837249168     0.7336070997     0.5468643940
Bq        -2.6854948947     0.9510206847     0.9971178784
Bq        -2.6833709212     0.6901243827     0.4568136971
Bq        -2.6858488902     0.9945034017     1.0871685753
Bq        -2.6830169256     0.6466416657     0.3667630003
Bq        -2.6862028858     1.0379861187     1.1772192722
Bq        -2.6826629301     0.6031589487     0.2767123034
Bq        -2.6844329079     0.8205725337     0.7269657878
Bq        -2.6846159712     0.9541066434     0.7735341036
Bq        -2.6839079801     0.8671412094     0.5934327099
Bq        -2.6849699668     0.9975893604     0.8635848005
Bq        -2.6835539845     0.8236584924     0.5033820130
Bq        -2.6853239624     1.0410720774     0.9536354974
Bq        -2.6831999889     0.7801757754     0.4133313161
Bq        -2.6856779580     1.0845547944     1.0436861943
Bq        -2.6828459934     0.7366930584     0.3232806192
Bq        -2.6860319535     1.1280375114     1.1337368912
Bq        -2.6824919978     0.6932103414     0.2332299223
Bq        -2.6842619757     0.9106239264     0.6834834068
Bq        -2.6844450390     1.0441580361     0.7300517226
Bq        -2.6837370478     0.9571926021     0.5499503288
Bq        -2.6847990345     1.0876407531     0.8201024195
Bq        -2.6833830522     0.9137098850     0.4598996320
Bq        -2.6851530301     1.1311234701     0.9101531164
Bq        -2.6830290567     0.8702271680     0.3698489351
Bq        -2.6855070257     1.1746061871     1.0002038133
Bq        -2.6826750611     0.8267444510     0.2797982382
Bq        -2.6858610213     1.2180889041     1.0902545101
Bq        -2.6823210655     0.7832617340     0.1897475413
Bq        -2.6840910434     1.0006753191     0.6400010257
Bq        -2.6842741067     1.1342094287     0.6865693416
Bq        -2.6835661155     1.0472439947     0.5064679478
Bq        -2.6846281023     1.1776921457     0.7766200385
Bq        -2.6832121200     1.0037612777     0.4164172509
Bq        -2.6849820978     1.2211748627     0.8666707353
Bq        -2.6828581244     0.9602785607     0.3263665540
Bq        -2.6853360934     1.2646575797     0.9567214322
Bq        -2.6825041288     0.9167958437     0.2363158572
Bq        -2.6856900890     1.3081402968     1.0467721291
Bq        -2.6821501332     0.8733131267     0.1462651603
Bq        -2.6839201111     1.0907267117     0.5965186447
Bq        -2.6841031744     1.2242608214     0.6430869605
Bq        -2.6833951833     1.1372953874     0.4629855668
Bq        -2.6844571700     1.2677435384     0.7331376574
Bq        -2.6830411877     1.0938126704     0.3729348699
Bq        -2.6848111656     1.3112262554     0.8231883543
Bq        -2.6826871921     1.0503299534     0.2828841730
Bq        -2.6851651611     1.3547089724     0.9132390512
Bq        -2.6823331965     1.0068472364     0.1928334761
Bq        -2.6855191567     1.3981916894     1.0032897481
Bq        -2.6819792010     0.9633645194     0.1027827793
Bq        -2.6837491788     1.1807781044     0.5530362637
Bq        -2.6839322421     1.3143122141     0.5996045795
Bq        -2.6832242510     1.2273467801     0.4195031857
Bq        -2.6842862377     1.3577949311     0.6896552764
Bq        -2.6828702554     1.1838640631     0.3294524889
Bq        -2.6846402333     1.4012776481     0.7797059733
Bq        -2.6825162598     1.1403813461     0.2394017920

1
2
3
4
5
6
7
8
9
10
11
12
13
14
15
16
17
18
19
20
21
22
23
24
25
26
27
28
29
30
31
32
33
34
35
36
37
38
39
40
41
42
43
44
45
46
47
48
49
50
51
52
53
54
55
56
57
58
59
60
61
62
63
64
65
66
67
68
69
70
71
72
73
74
75
76
77
78
79
80
81
82
83
84
85
86
87
88
89
90
91
92
93
94
95
96
97
98
99
100
101
102
103
104
105
106
107
108
109
110
111
112
113
114
115
116
117
118
119
120
121
122
123
124
125
126
127
128
129
130
131
132
133
134
135
136
137
138
139
140
141
142
143
144
145
146
147
148
149
150
151
152
153
154
155
156
157
158
159
160
161
162
163
164
165
166
167
168
169
170
171
172
173
174
175
176
177
178
179
180
181
182
183
184
185
186
187
188
189
190
191
192
193
194
195
196
197
198
199
200
201
202
203
204
205
206
207
208
209
210
211
212
213
214
215
216
217
218
219
220
221
222
223
224
225
226
227
228
229
230
231
232
233
234
235
236

