%nproc=8
%mem=1000MB
# rb3lyp/6-311+g** NMR geom=connectivity

Title

0 1
C    -4.0500558   -0.5771862    0.8136712
H    -5.0263804   -1.0082727    1.0024760
C    -3.9381552    0.6617804    0.2400876
H    -4.8252424    1.2338890   -0.0111295
C    -2.6768410    1.2433246    0.0057578
C    -1.4974121    0.5051527    0.2848253
C    -1.6508332   -0.7338728    0.9404026
H    -0.7713646   -1.2730967    1.2633753
C    -2.8898548   -1.2624035    1.1994307
H    -2.9683706   -2.2124563    1.7152676
C    -2.5773185    2.5963696   -0.4192930
H    -3.4870728    3.1412239   -0.6474055
C    -1.3741895    3.2147896   -0.4364030
H    -1.2997315    4.2742019   -0.6578144
C    -0.1719488    2.4994090   -0.1734588
C    -0.2043917    1.1018437    0.0192689
C     1.0513491    3.2042560   -0.0676222
H     1.0427344    4.2819499   -0.1896997
C     2.1942091    2.5487446    0.2579577
H     3.1168527    3.0912848    0.4334727
C     2.2216473    1.1336562    0.2934990
C     1.0486931    0.3945528    0.0302412
C     3.4483363    0.4614633    0.5573939
H     4.3095794    1.0606054    0.8334846
C     3.5427346   -0.8855926    0.4749463
H     4.4731467   -1.3939704    0.7038822
C     2.4490052   -1.6474447   -0.0196319
C     1.2150704   -1.0057258   -0.3013573
C     0.2531113   -1.7434440   -1.0216591
H    -0.6541356   -1.2535051   -1.3462847
C     0.4494193   -3.0628597   -1.3413779
H    -0.3083162   -3.5944309   -1.9054060
C     1.6251726   -3.7207967   -0.9552541
H     1.7670048   -4.7687404   -1.1927019
C     2.6109872   -3.0144177   -0.3183050
H     3.5525612   -3.4902813   -0.0646367
Bq        -2.9903029424    -1.1232473054     2.2196171052
Bq        -2.9867629867    -1.5580744754     1.3191101363
Bq        -2.9885329646    -1.3406608904     1.7693636207
Bq        -2.9887160279    -1.2071267807     1.8159319366
Bq        -2.9880080367    -1.2940922147     1.6358305428
Bq        -2.9890700234    -1.1636440637     1.9059826335
Bq        -2.9876540411    -1.3375749317     1.5457798459
Bq        -2.9894240190    -1.1201613467     1.9960333304
Bq        -2.9873000456    -1.3810576487     1.4557291491
Bq        -2.9897780146    -1.0766786297     2.0860840272
Bq        -2.9869460500    -1.4245403657     1.3656784522
Bq        -2.9901320102    -1.0331959127     2.1761347241
Bq        -2.9865920544    -1.4680230827     1.2756277553
Bq        -2.9883620323    -1.2506094977     1.7258812397
Bq        -2.9885450956    -1.1170753880     1.7724495556
Bq        -2.9878371044    -1.2040408220     1.5923481618
Bq        -2.9888990912    -1.0735926710     1.8625002524
Bq        -2.9874831089    -1.2475235390     1.5022974649
Bq        -2.9892530867    -1.0301099540     1.9525509493
Bq        -2.9871291133    -1.2910062560     1.4122467680
Bq        -2.9896070823    -0.9866272370     2.0426016462
Bq        -2.9867751177    -1.3344889731     1.3221960712
Bq        -2.9899610779    -0.9431445200     2.1326523431
Bq        -2.9864211221    -1.3779716901     1.2321453743
Bq        -2.9881911000    -1.1605581050     1.6823988587
Bq        -2.9883741633    -1.0270239954     1.7289671745
Bq        -2.9876661722    -1.1139894294     1.5488657808
Bq        -2.9887281589    -0.9835412784     1.8190178714
Bq        -2.9873121766    -1.1574721464     1.4588150839
Bq        -2.9890821545    -0.9400585614     1.9090685683
Bq        -2.9869581810    -1.2009548634     1.3687643870
Bq        -2.9894361500    -0.8965758443     1.9991192652
Bq        -2.9866041854    -1.2444375804     1.2787136901
Bq        -2.9897901456    -0.8530931273     2.0891699621
Bq        -2.9862501899    -1.2879202974     1.1886629932
Bq        -2.9880201677    -1.0705067124     1.6389164776
Bq        -2.9882032310    -0.9369726027     1.6854847935
Bq        -2.9874952399    -1.0239380367     1.5053833997
Bq        -2.9885572266    -0.8934898857     1.7755354904
Bq        -2.9871412443    -1.0674207537     1.4153327029
Bq        -2.9889112222    -0.8500071687     1.8655861873
Bq        -2.9867872487    -1.1109034707     1.3252820060
Bq        -2.9892652178    -0.8065244517     1.9556368841
Bq        -2.9864332532    -1.1543861877     1.2352313091
Bq        -2.9896192133    -0.7630417347     2.0456875810
Bq        -2.9860792576    -1.1978689047     1.1451806122
Bq        -2.9878492355    -0.9804553197     1.5954340966
Bq        -2.9880322988    -0.8469212100     1.6420024125
Bq        -2.9873243076    -0.9338866440     1.4619010187
Bq        -2.9883862943    -0.8034384930     1.7320531093
Bq        -2.9869703120    -0.9773693610     1.3718503218
Bq        -2.9887402899    -0.7599557760     1.8221038062
Bq        -2.9866163165    -1.0208520780     1.2817996249
Bq        -2.9890942855    -0.7164730590     1.9121545031
Bq        -2.9862623209    -1.0643347950     1.1917489281
Bq        -2.9894482811    -0.6729903420     2.0022052000
Bq        -2.9859083253    -1.1078175120     1.1016982312
Bq        -2.9876783032    -0.8904039270     1.5519517156
Bq        -2.9878613665    -0.7568698173     1.5985200314
Bq        -2.9871533753    -0.8438352514     1.4184186377
Bq        -2.9882153621    -0.7133871003     1.6885707283
Bq        -2.9867993798    -0.8873179684     1.3283679408
Bq        -2.9885693576    -0.6699043833     1.7786214252
Bq        -2.9864453842    -0.9308006854     1.2383172439
Bq        -2.9889233532    -0.6264216663     1.8686721221
Bq        -2.9860913886    -0.9742834024     1.1482665470
Bq        -2.9892773488    -0.5829389493     1.9587228190
Bq        -2.9857373930    -1.0177661194     1.0582158501
Bq        -2.9875073709    -0.8003525344     1.5084693346
Bq        -2.9876904342    -0.6668184247     1.5550376504
Bq        -2.9869824431    -0.7537838587     1.3749362566
Bq        -2.9880444298    -0.6233357077     1.6450883473
Bq        -2.9866284475    -0.7972665757     1.2848855598
Bq        -2.9883984254    -0.5798529907     1.7351390442
Bq        -2.9862744519    -0.8407492927     1.1948348629
Bq        -2.9887524209    -0.5363702737     1.8251897411
Bq        -2.9859204563    -0.8842320097     1.1047841660
Bq        -2.9891064165    -0.4928875567     1.9152404379
Bq        -2.9855664608    -0.9277147267     1.0147334691
Bq        -2.9873364386    -0.7103011417     1.4649869535
Bq        -2.9875195019    -0.5767670320     1.5115552694
Bq        -2.9868115108    -0.6637324660     1.3314538756
Bq        -2.9878734975    -0.5332843150     1.6016059663
Bq        -2.9864575152    -0.7072151830     1.2414031787
Bq        -2.9882274931    -0.4898015980     1.6916566631
Bq        -2.9861035196    -0.7506979000     1.1513524818
Bq        -2.9885814887    -0.4463188810     1.7817073600
Bq        -2.9857495241    -0.7941806170     1.0613017850
Bq        -2.9889354842    -0.4028361640     1.8717580569
Bq        -2.9853955285    -0.8376633340     0.9712510881
Bq        -2.9871655064    -0.6202497490     1.4215045725
Bq        -2.9873485697    -0.4867156393     1.4680728883
Bq        -2.9866405785    -0.5736810733     1.2879714946
Bq        -2.9877025652    -0.4432329223     1.5581235852
Bq        -2.9862865829    -0.6171637904     1.1979207977
Bq        -2.9880565608    -0.3997502053     1.6481742821
Bq        -2.9859325874    -0.6606465074     1.1078701008
Bq        -2.9884105564    -0.3562674883     1.7382249790
Bq        -2.9855785918    -0.7041292244     1.0178194039
Bq        -2.9887645520    -0.3127847713     1.8282756759
Bq        -2.9852245962    -0.7476119414     0.9277687070
Bq        -2.9869945741    -0.5301983563     1.3780221915
Bq        -2.9871776374    -0.3966642467     1.4245905073
Bq        -2.9864696462    -0.4836296807     1.2444891135
Bq        -2.9875316330    -0.3531815297     1.5146412042
Bq        -2.9861156507    -0.5271123977     1.1544384167
Bq        -2.9878856285    -0.3096988127     1.6046919011
Bq        -2.9857616551    -0.5705951147     1.0643877198
Bq        -2.9882396241    -0.2662160957     1.6947425980
Bq        -2.9854076595    -0.6140778317     0.9743370229
Bq        -2.9885936197    -0.2227333786     1.7847932948
Bq        -2.9850536639    -0.6575605487     0.8842863260
Bq        -2.9868236418    -0.4401469637     1.3345398104
Bq        -2.9870067051    -0.3066128540     1.3811081263
Bq        -2.9862987140    -0.3935782880     1.2010067325
Bq        -2.9873607007    -0.2631301370     1.4711588232
Bq        -2.9859447184    -0.4370610050     1.1109560356
Bq        -2.9877146963    -0.2196474200     1.5612095200
Bq        -2.9855907228    -0.4805437220     1.0209053387
Bq        -2.9880686918    -0.1761647030     1.6512602169
Bq        -2.9852367272    -0.5240264390     0.9308546419
Bq        -2.9884226874    -0.1326819860     1.7413109138
Bq        -2.9848827317    -0.5675091560     0.8408039450
Bq        -2.9866527095    -0.3500955710     1.2910574294
Bq        -2.9868357728    -0.2165614613     1.3376257452
Bq        -2.9861277817    -0.3035268953     1.1575243515
Bq        -2.9871897684    -0.1730787443     1.4276764421
Bq        -2.9857737861    -0.3470096123     1.0674736546
Bq        -2.9875437640    -0.1295960273     1.5177271390
Bq        -2.9854197905    -0.3904923293     0.9774229577
Bq        -2.9878977596    -0.0861133103     1.6077778359
Bq        -2.9850657950    -0.4339750463     0.8873722608
Bq        -2.9882517551    -0.0426305933     1.6978285328
Bq        -2.9847117994    -0.4774577634     0.7973215639
Bq        -2.9864817773    -0.2600441783     1.2475750484
Bq        -2.9866648406    -0.1265100687     1.2941433642
Bq        -2.9859568494    -0.2134755027     1.1140419704
Bq        -2.9870188361    -0.0830273517     1.3841940611
Bq        -2.9856028538    -0.2569582197     1.0239912736
Bq        -2.9873728317    -0.0395446346     1.4742447580
Bq        -2.9852488583    -0.3004409367     0.9339405767
Bq        -2.9877268273     0.0039380824     1.5642954549
Bq        -2.9848948627    -0.3439236537     0.8438898798
Bq        -2.9880808229     0.0474207994     1.6543461517
Bq        -2.9845408671    -0.3874063707     0.7538391829
Bq        -2.9863108450    -0.1699927857     1.2040926673
Bq        -2.9864939083    -0.0364586760     1.2506609832
Bq        -2.9857859171    -0.1234241100     1.0705595894
Bq        -2.9868479039     0.0070240410     1.3407116801
Bq        -2.9854319216    -0.1669068270     0.9805088925
Bq        -2.9872018994     0.0505067580     1.4307623769
Bq        -2.9850779260    -0.2103895440     0.8904581956
Bq        -2.9875558950     0.0939894750     1.5208130738
Bq        -2.9847239304    -0.2538722610     0.8004074988
Bq        -2.9879098906     0.1374721920     1.6108637707
Bq        -2.9843699348    -0.2973549780     0.7103568019
Bq        -2.9861399127    -0.0799413930     1.1606102863
Bq        -2.9863229760     0.0535927167     1.2071786021
Bq        -2.9856149849    -0.0333727173     1.0270772084
Bq        -2.9866769716     0.0970754337     1.2972292990
Bq        -2.9852609893    -0.0768554343     0.9370265115
Bq        -2.9870309672     0.1405581507     1.3872799959
Bq        -2.9849069937    -0.1203381513     0.8469758146
Bq        -2.9873849627     0.1840408677     1.4773306928
Bq        -2.9845529981    -0.1638208683     0.7569251177
Bq        -2.9877389583     0.2275235847     1.5673813897
Bq        -2.9841990026    -0.2073035853     0.6668744208
Bq        -2.9859689804     0.0101099997     1.1171279053
Bq        -2.9861520437     0.1436441094     1.1636962211
Bq        -2.9854440526     0.0566786753     0.9835948273
Bq        -2.9865060393     0.1871268264     1.2537469180
Bq        -2.9850900570     0.0131959583     0.8935441305
Bq        -2.9868600349     0.2306095434     1.3437976149
Bq        -2.9847360614    -0.0302867587     0.8034934336
Bq        -2.9872140305     0.2740922604     1.4338483118
Bq        -2.9843820659    -0.0737694757     0.7134427367
Bq        -2.9875680260     0.3175749774     1.5238990086
Bq        -2.9840280703    -0.1172521927     0.6233920398
Bq        -2.9857980482     0.1001613924     1.0736455242
Bq        -2.9859811115     0.2336955020     1.1202138401
Bq        -2.9852731203     0.1467300680     0.9401124463
Bq        -2.9863351070     0.2771782190     1.2102645370
Bq        -2.9849191247     0.1032473510     0.8500617494
Bq        -2.9866891026     0.3206609360     1.3003152338
Bq        -2.9845651292     0.0597646340     0.7600110525
Bq        -2.9870430982     0.3641436530     1.3903659307
Bq        -2.9842111336     0.0162819170     0.6699603557
Bq        -2.9873970938     0.4076263700     1.4804166276
Bq        -2.9838571380    -0.0272008000     0.5799096588
Bq        -2.9856271159     0.1902127850     1.0301631432
Bq        -2.9858101792     0.3237468947     1.0767314590
Bq        -2.9851021880     0.2367814607     0.8966300653
Bq        -2.9861641748     0.3672296117     1.1667821559
Bq        -2.9847481925     0.1932987437     0.8065793684
Bq        -2.9865181703     0.4107123287     1.2568328528
Bq        -2.9843941969     0.1498160267     0.7165286715
Bq        -2.9868721659     0.4541950457     1.3468835497
Bq        -2.9840402013     0.1063333097     0.6264779746
Bq        -2.9872261615     0.4976777627     1.4369342466
Bq        -2.9836862057     0.0628505927     0.5364272777

1
2
3
4
5
6
7
8
9
10
11
12
13
14
15
16
17
18
19
20
21
22
23
24
25
26
27
28
29
30
31
32
33
34
35
36
37
38
39
40
41
42
43
44
45
46
47
48
49
50
51
52
53
54
55
56
57
58
59
60
61
62
63
64
65
66
67
68
69
70
71
72
73
74
75
76
77
78
79
80
81
82
83
84
85
86
87
88
89
90
91
92
93
94
95
96
97
98
99
100
101
102
103
104
105
106
107
108
109
110
111
112
113
114
115
116
117
118
119
120
121
122
123
124
125
126
127
128
129
130
131
132
133
134
135
136
137
138
139
140
141
142
143
144
145
146
147
148
149
150
151
152
153
154
155
156
157
158
159
160
161
162
163
164
165
166
167
168
169
170
171
172
173
174
175
176
177
178
179
180
181
182
183
184
185
186
187
188
189
190
191
192
193
194
195
196
197
198
199
200
201
202
203
204
205
206
207
208
209
210
211
212
213
214
215
216
217
218
219
220
221
222
223
224
225
226
227
228
229
230
231
232
233
234
235
236

