%nproc=8
%mem=1000MB
# rb3lyp/6-311+g** NMR geom=connectivity

Title

0 1
C    -4.0500558   -0.5771862    0.8136712
H    -5.0263804   -1.0082727    1.0024760
C    -3.9381552    0.6617804    0.2400876
H    -4.8252424    1.2338890   -0.0111295
C    -2.6768410    1.2433246    0.0057578
C    -1.4974121    0.5051527    0.2848253
C    -1.6508332   -0.7338728    0.9404026
H    -0.7713646   -1.2730967    1.2633753
C    -2.8898548   -1.2624035    1.1994307
H    -2.9683706   -2.2124563    1.7152676
C    -2.5773185    2.5963696   -0.4192930
H    -3.4870728    3.1412239   -0.6474055
C    -1.3741895    3.2147896   -0.4364030
H    -1.2997315    4.2742019   -0.6578144
C    -0.1719488    2.4994090   -0.1734588
C    -0.2043917    1.1018437    0.0192689
C     1.0513491    3.2042560   -0.0676222
H     1.0427344    4.2819499   -0.1896997
C     2.1942091    2.5487446    0.2579577
H     3.1168527    3.0912848    0.4334727
C     2.2216473    1.1336562    0.2934990
C     1.0486931    0.3945528    0.0302412
C     3.4483363    0.4614633    0.5573939
H     4.3095794    1.0606054    0.8334846
C     3.5427346   -0.8855926    0.4749463
H     4.4731467   -1.3939704    0.7038822
C     2.4490052   -1.6474447   -0.0196319
C     1.2150704   -1.0057258   -0.3013573
C     0.2531113   -1.7434440   -1.0216591
H    -0.6541356   -1.2535051   -1.3462847
C     0.4494193   -3.0628597   -1.3413779
H    -0.3083162   -3.5944309   -1.9054060
C     1.6251726   -3.7207967   -0.9552541
H     1.7670048   -4.7687404   -1.1927019
C     2.6109872   -3.0144177   -0.3183050
H     3.5525612   -3.4902813   -0.0646367
Bq         2.9442267527     0.0097000449     1.3213063612
Bq         3.1496576673     0.1235213171     0.5565561684
Bq         2.9185478884    -0.0045276141     1.4169001353
Bq         3.1753365316     0.1377489761     0.4609623943
Bq         3.0469422100     0.0666106810     0.9389312648
Bq         3.0175722951     0.1513657160     1.0482655785
Bq         3.0689300238     0.1798210341     0.8570780303
Bq         2.9918934308     0.1371380570     1.1438593526
Bq         3.0946088881     0.1940486931     0.7614842562
Bq         2.9662145665     0.1229103980     1.2394531267
Bq         3.1202877524     0.2082763521     0.6658904821
Bq         2.9405357022     0.1086827389     1.3350469007
Bq         3.1459666168     0.2225040112     0.5702967080
Bq         2.9148568378     0.0944550799     1.4306406748
Bq         3.1716454811     0.2367316702     0.4747029339
Bq         3.0432511595     0.1655933750     0.9526718044
Bq         3.0138812446     0.2503484100     1.0620061180
Bq         3.0652389732     0.2788037281     0.8708185698
Bq         2.9882023803     0.2361207510     1.1575998921
Bq         3.0909178376     0.2930313871     0.7752247957
Bq         2.9625235160     0.2218930920     1.2531936662
Bq         3.1165967019     0.3072590462     0.6796310216
Bq         2.9368446516     0.2076654330     1.3487874403
Bq         3.1422755662     0.3214867052     0.5840372475
Bq         2.9111657873     0.1934377739     1.4443812144
Bq         3.1679544305     0.3357143642     0.4884434735
Bq         3.0395601089     0.2645760691     0.9664123439
Bq         3.0101901941     0.3493311041     1.0757466576
Bq         3.0615479227     0.3777864221     0.8845591094
Bq         2.9845113297     0.3351034451     1.1713404317
Bq         3.0872267870     0.3920140812     0.7889653353
Bq         2.9588324654     0.3208757860     1.2669342058
Bq         3.1129056514     0.4062417402     0.6933715612
Bq         2.9331536011     0.3066481270     1.3625279799
Bq         3.1385845157     0.4204693992     0.5977777871
Bq         2.9074747368     0.2924204680     1.4581217540
Bq         3.1642633800     0.4346970583     0.5021840130
Bq         3.0358690584     0.3635587631     0.9801528835
Bq         3.0064991435     0.4483137981     1.0894871971
Bq         3.0578568722     0.4767691162     0.8982996490
Bq         2.9808202792     0.4340861391     1.1850809712
Bq         3.0835357365     0.4909967752     0.8027058749
Bq         2.9551414149     0.4198584801     1.2806747453
Bq         3.1092146008     0.5052244342     0.7071121008
Bq         2.9294625506     0.4056308210     1.3762685194
Bq         3.1348934651     0.5194520933     0.6115183267
Bq         2.9037836862     0.3914031620     1.4718622935
Bq         3.1605723295     0.5336797523     0.5159245526
Bq         3.0321780079     0.4625414571     0.9938934230
Bq         3.0028080930     0.5472964922     1.1032277367
Bq         3.0541658216     0.5757518102     0.9120401885
Bq         2.9771292287     0.5330688331     1.1988215108
Bq         3.0798446860     0.5899794692     0.8164464144
Bq         2.9514503644     0.5188411741     1.2944152849
Bq         3.1055235503     0.6042071283     0.7208526403
Bq         2.9257715000     0.5046135151     1.3900090590
Bq         3.1312024146     0.6184347873     0.6252588662
Bq         2.9000926357     0.4903858560     1.4856028331
Bq         3.1568812789     0.6326624463     0.5296650921
Bq         3.0284869573     0.5615241512     1.0076339626
Bq         2.9991170425     0.6462791862     1.1169682763
Bq         3.0504747711     0.6747345042     0.9257807281
Bq         2.9734381781     0.6320515272     1.2125620504
Bq         3.0761536354     0.6889621633     0.8301869540
Bq         2.9477593138     0.6178238681     1.3081558244
Bq         3.1018324998     0.7031898223     0.7345931799
Bq         2.9220804495     0.6035962091     1.4037495985
Bq         3.1275113641     0.7174174813     0.6389994058
Bq         2.8964015852     0.5893685501     1.4993433726
Bq         3.1531902284     0.7316451404     0.5434056317
Bq         3.0247959068     0.6605068452     1.0213745022
Bq         2.9954259919     0.7452618802     1.1307088158
Bq         3.0467837206     0.7737171983     0.9395212676
Bq         2.9697471276     0.7310342212     1.2263025899
Bq         3.0724625849     0.7879448573     0.8439274935
Bq         2.9440682633     0.7168065622     1.3218963640
Bq         3.0981414492     0.8021725163     0.7483337194
Bq         2.9183893990     0.7025789031     1.4174901381
Bq         3.1238203135     0.8164001754     0.6527399453
Bq         2.8927105346     0.6883512441     1.5130839122
Bq         3.1494991779     0.8306278344     0.5571461712
Bq         3.0211048563     0.7594895393     1.0351150417
Bq         2.9917349414     0.8442445743     1.1444493554
Bq         3.0430926700     0.8726998923     0.9532618072
Bq         2.9660560771     0.8300169152     1.2400431295
Bq         3.0687715344     0.8869275513     0.8576680331
Bq         2.9403772127     0.8157892562     1.3356369036
Bq         3.0944503987     0.9011552104     0.7620742590
Bq         2.9146983484     0.8015615972     1.4312306777
Bq         3.1201292630     0.9153828694     0.6664804849
Bq         2.8890194841     0.7873339381     1.5268244518
Bq         3.1458081273     0.9296105284     0.5708867108
Bq         3.0174138057     0.8584722333     1.0488555813
Bq         2.9880438909     0.9432272683     1.1581898949
Bq         3.0394016195     0.9716825864     0.9670023467
Bq         2.9623650265     0.9289996093     1.2537836690
Bq         3.0650804838     0.9859102454     0.8714085727
Bq         2.9366861622     0.9147719502     1.3493774431
Bq         3.0907593481     1.0001379044     0.7758147986
Bq         2.9110072979     0.9005442912     1.4449712172
Bq         3.1164382125     1.0143655634     0.6802210245
Bq         2.8853284336     0.8863166322     1.5405649913
Bq         3.1421170768     1.0285932225     0.5846272504
Bq         3.0137227552     0.9574549273     1.0625961208
Bq         2.9843528403     1.0422099623     1.1719304345
Bq         3.0357105690     1.0706652804     0.9807428863
Bq         2.9586739760     1.0279823033     1.2675242086
Bq         3.0613894333     1.0848929394     0.8851491122
Bq         2.9329951117     1.0137546443     1.3631179827
Bq         3.0870682976     1.0991205984     0.7895553381
Bq         2.9073162474     0.9995269852     1.4587117568
Bq         3.1127471619     1.1133482575     0.6939615640
Bq         2.8816373830     0.9852993262     1.5543055309
Bq         3.1384260263     1.1275759165     0.5983677899
Bq         3.0100317046     1.0564376214     1.0763366604
Bq         2.9806617898     1.1411926564     1.1856709741
Bq         3.0320195184     1.1696479744     0.9944834259
Bq         2.9549829255     1.1269649973     1.2812647481
Bq         3.0576983828     1.1838756335     0.8988896518
Bq         2.9293040611     1.1127373383     1.3768585222
Bq         3.0833772471     1.1981032925     0.8032958777
Bq         2.9036251968     1.0985096793     1.4724522963
Bq         3.1090561114     1.2123309515     0.7077021036
Bq         2.8779463325     1.0842820203     1.5680460704
Bq         3.1347349757     1.2265586105     0.6121083295
Bq         3.0063406541     1.1554203154     1.0900772000
Bq         2.9769707393     1.2401753504     1.1994115136
Bq         3.0283284679     1.2686306685     1.0082239654
Bq         2.9512918749     1.2259476914     1.2950052877
Bq         3.0540073322     1.2828583275     0.9126301913
Bq         2.9256130106     1.2117200323     1.3905990618
Bq         3.0796861965     1.2970859865     0.8170364172
Bq         2.8999341463     1.1974923733     1.4861928359
Bq         3.1053650609     1.3113136455     0.7214426431
Bq         2.8742552820     1.1832647143     1.5817866100
Bq         3.1310439252     1.3255413046     0.6258488690
Bq         3.0026496036     1.2544030094     1.1038177395
Bq         2.9732796887     1.3391580444     1.2131520532
Bq         3.0246374174     1.3676133625     1.0219645050
Bq         2.9476008244     1.3249303854     1.3087458273
Bq         3.0503162817     1.3818410215     0.9263707309
Bq         2.9219219601     1.3107027264     1.4043396014
Bq         3.0759951460     1.3960686806     0.8307769568
Bq         2.8962430957     1.2964750674     1.4999333755
Bq         3.1016740103     1.4102963396     0.7351831827
Bq         2.8705642314     1.2822474083     1.5955271495
Bq         3.1273528747     1.4245239986     0.6395894086
Bq         2.9989585530     1.3533857035     1.1175582791
Bq         2.9695886382     1.4381407385     1.2268925927
Bq         3.0209463668     1.4665960565     1.0357050445
Bq         2.9439097739     1.4239130794     1.3224863668
Bq         3.0466252311     1.4808237156     0.9401112704
Bq         2.9182309095     1.4096854204     1.4180801409
Bq         3.0723040955     1.4950513746     0.8445174964
Bq         2.8925520452     1.3954577614     1.5136739150
Bq         3.0979829598     1.5092790336     0.7489237223
Bq         2.8668731809     1.3812301024     1.6092676891
Bq         3.1236618241     1.5235066926     0.6533299482
Bq         2.9952675025     1.4523683975     1.1312988186
Bq         2.9658975876     1.5371234325     1.2406331323
Bq         3.0172553163     1.5655787506     1.0494455841
Bq         2.9402187233     1.5228957735     1.3362269064
Bq         3.0429341806     1.5798064096     0.9538518100
Bq         2.9145398590     1.5086681145     1.4318206805
Bq         3.0686130449     1.5940340686     0.8582580359
Bq         2.8888609947     1.4944404554     1.5274144546
Bq         3.0942919093     1.6082617277     0.7626642618
Bq         2.8631821304     1.4802127964     1.6230082287
Bq         3.1199707736     1.6224893867     0.6670704877
Bq         2.9915764520     1.5513510915     1.1450393582
Bq         2.9622065371     1.6361061265     1.2543736718
Bq         3.0135642658     1.6645614446     1.0631861237
Bq         2.9365276728     1.6218784675     1.3499674459
Bq         3.0392431301     1.6787891036     0.9675923496
Bq         2.9108488085     1.6076508085     1.4455612200
Bq         3.0649219944     1.6930167627     0.8719985755
Bq         2.8851699441     1.5934231495     1.5411549941
Bq         3.0906008587     1.7072444217     0.7764048014
Bq         2.8594910798     1.5791954904     1.6367487682
Bq         3.1162797230     1.7214720807     0.6808110273
Bq         2.9878854014     1.6503337856     1.1587798978
Bq         2.9585154866     1.7350888206     1.2681142114
Bq         3.0098732152     1.7635441386     1.0769266632
Bq         2.9328366223     1.7208611616     1.3637079855
Bq         3.0355520795     1.7777717977     0.9813328891
Bq         2.9071577579     1.7066335025     1.4593017596
Bq         3.0612309439     1.7919994567     0.8857391150
Bq         2.8814788936     1.6924058435     1.5548955337
Bq         3.0869098082     1.8062271157     0.7901453409
Bq         2.8558000293     1.6781781845     1.6504893078
Bq         3.1125886725     1.8204547748     0.6945515668
Bq         2.9841943509     1.7493164796     1.1725204373
Bq         2.9548244360     1.8340715146     1.2818547510
Bq         3.0061821647     1.8625268327     1.0906672028
Bq         2.9291455717     1.8198438556     1.3774485251
Bq         3.0318610290     1.8767544917     0.9950734287
Bq         2.9034667074     1.8056161966     1.4730422992
Bq         3.0575398933     1.8909821507     0.8994796546
Bq         2.8777878431     1.7913885375     1.5686360732
Bq         3.0832187577     1.9052098098     0.8038858805

1
2
3
4
5
6
7
8
9
10
11
12
13
14
15
16
17
18
19
20
21
22
23
24
25
26
27
28
29
30
31
32
33
34
35
36
37
38
39
40
41
42
43
44
45
46
47
48
49
50
51
52
53
54
55
56
57
58
59
60
61
62
63
64
65
66
67
68
69
70
71
72
73
74
75
76
77
78
79
80
81
82
83
84
85
86
87
88
89
90
91
92
93
94
95
96
97
98
99
100
101
102
103
104
105
106
107
108
109
110
111
112
113
114
115
116
117
118
119
120
121
122
123
124
125
126
127
128
129
130
131
132
133
134
135
136
137
138
139
140
141
142
143
144
145
146
147
148
149
150
151
152
153
154
155
156
157
158
159
160
161
162
163
164
165
166
167
168
169
170
171
172
173
174
175
176
177
178
179
180
181
182
183
184
185
186
187
188
189
190
191
192
193
194
195
196
197
198
199
200
201
202
203
204
205
206
207
208
209
210
211
212
213
214
215
216
217
218
219
220
221
222
223
224
225
226
227
228
229
230
231
232
233
234
235
236

