%nproc=8
%mem=1000MB
# rb3lyp/6-311+g** NMR geom=connectivity

Title

0 1
C    -4.0500558   -0.5771862    0.8136712
H    -5.0263804   -1.0082727    1.0024760
C    -3.9381552    0.6617804    0.2400876
H    -4.8252424    1.2338890   -0.0111295
C    -2.6768410    1.2433246    0.0057578
C    -1.4974121    0.5051527    0.2848253
C    -1.6508332   -0.7338728    0.9404026
H    -0.7713646   -1.2730967    1.2633753
C    -2.8898548   -1.2624035    1.1994307
H    -2.9683706   -2.2124563    1.7152676
C    -2.5773185    2.5963696   -0.4192930
H    -3.4870728    3.1412239   -0.6474055
C    -1.3741895    3.2147896   -0.4364030
H    -1.2997315    4.2742019   -0.6578144
C    -0.1719488    2.4994090   -0.1734588
C    -0.2043917    1.1018437    0.0192689
C     1.0513491    3.2042560   -0.0676222
H     1.0427344    4.2819499   -0.1896997
C     2.1942091    2.5487446    0.2579577
H     3.1168527    3.0912848    0.4334727
C     2.2216473    1.1336562    0.2934990
C     1.0486931    0.3945528    0.0302412
C     3.4483363    0.4614633    0.5573939
H     4.3095794    1.0606054    0.8334846
C     3.5427346   -0.8855926    0.4749463
H     4.4731467   -1.3939704    0.7038822
C     2.4490052   -1.6474447   -0.0196319
C     1.2150704   -1.0057258   -0.3013573
C     0.2531113   -1.7434440   -1.0216591
H    -0.6541356   -1.2535051   -1.3462847
C     0.4494193   -3.0628597   -1.3413779
H    -0.3083162   -3.5944309   -1.9054060
C     1.6251726   -3.7207967   -0.9552541
H     1.7670048   -4.7687404   -1.1927019
C     2.6109872   -3.0144177   -0.3183050
H     3.5525612   -3.4902813   -0.0646367
Bq        -2.6186939646     4.0431805750    -0.1013915758
Bq        -2.6110100019     3.9940819402    -0.2951189120
Bq        -2.6225359459     4.0677298924    -0.0045279077
Bq        -2.6071680206     3.9695326228    -0.3919825801
Bq        -2.6263779272     4.0922792097     0.0923357604
Bq        -2.6033260393     3.9449833055    -0.4888462482
Bq        -2.6302199086     4.1168285271     0.1891994285
Bq        -2.5994840579     3.9204339881    -0.5857099162
Bq        -2.6340618899     4.1413778445     0.2860630966
Bq        -2.5956420766     3.8958846707    -0.6825735843
Bq        -2.6148519833     4.0186312576    -0.1982552439
Bq        -2.6177210104     4.1401204069    -0.1259216052
Bq        -2.6100370477     4.0910217722    -0.3196489414
Bq        -2.6215629917     4.1646697243    -0.0290579371
Bq        -2.6061950664     4.0664724548    -0.4165126095
Bq        -2.6254049730     4.1892190417     0.0678057310
Bq        -2.6023530850     4.0419231374    -0.5133762776
Bq        -2.6292469544     4.2137683590     0.1646693990
Bq        -2.5985111037     4.0173738200    -0.6102399457
Bq        -2.6330889357     4.2383176764     0.2615330671
Bq        -2.5946691224     3.9928245027    -0.7071036138
Bq        -2.6138790290     4.1155710895    -0.2227852733
Bq        -2.6167480561     4.2370602389    -0.1504516347
Bq        -2.6090640935     4.1879616041    -0.3441789708
Bq        -2.6205900375     4.2616095562    -0.0535879666
Bq        -2.6052221122     4.1634122867    -0.4410426389
Bq        -2.6244320188     4.2861588736     0.0432757015
Bq        -2.6013801308     4.1388629694    -0.5379063070
Bq        -2.6282740001     4.3107081910     0.1401393696
Bq        -2.5975381495     4.1143136520    -0.6347699751
Bq        -2.6321159815     4.3352575084     0.2370030377
Bq        -2.5936961682     4.0897643346    -0.7316336432
Bq        -2.6129060748     4.2125109215    -0.2473153027
Bq        -2.6157751019     4.3340000708    -0.1749816641
Bq        -2.6080911393     4.2849014360    -0.3687090003
Bq        -2.6196170832     4.3585493882    -0.0781179960
Bq        -2.6042491579     4.2603521187    -0.4655726683
Bq        -2.6234590646     4.3830987055     0.0187456721
Bq        -2.6004071766     4.2358028013    -0.5624363364
Bq        -2.6273010459     4.4076480229     0.1156093402
Bq        -2.5965651953     4.2112534839    -0.6593000045
Bq        -2.6311430272     4.4321973403     0.2124730083
Bq        -2.5927232139     4.1867041665    -0.7561636726
Bq        -2.6119331206     4.3094507534    -0.2718453322
Bq        -2.6148021477     4.4309399027    -0.1995116935
Bq        -2.6071181850     4.3818412680    -0.3932390297
Bq        -2.6186441290     4.4554892201    -0.1026480254
Bq        -2.6032762037     4.3572919506    -0.4901026978
Bq        -2.6224861104     4.4800385375    -0.0057843573
Bq        -2.5994342224     4.3327426332    -0.5869663659
Bq        -2.6263280917     4.5045878549     0.0910793108
Bq        -2.5955922410     4.3081933159    -0.6838300340
Bq        -2.6301700730     4.5291371722     0.1879429789
Bq        -2.5917502597     4.2836439985    -0.7806937020
Bq        -2.6109601664     4.4063905854    -0.2963753616
Bq        -2.5635284271    -0.4160516942     1.0309530417
Bq        -2.5558444644    -0.4651503290     0.8372257055
Bq        -2.5673704084    -0.3915023768     1.1278167098
Bq        -2.5520024831    -0.4896996464     0.7403620374
Bq        -2.5712123897    -0.3669530595     1.2246803779
Bq        -2.5481605018    -0.5142489637     0.6434983694
Bq        -2.5750543711    -0.3424037421     1.3215440460
Bq        -2.5443185204    -0.5387982811     0.5466347013
Bq        -2.5788963524    -0.3178544247     1.4184077141
Bq        -2.5404765391    -0.5633475985     0.4497710332
Bq        -2.5596864458    -0.4406010116     0.9340893736
Bq        -2.5625554729    -0.3191118623     1.0064230123
Bq        -2.5548715102    -0.3682104970     0.8126956761
Bq        -2.5663974542    -0.2945625449     1.1032866804
Bq        -2.5510295289    -0.3927598144     0.7158320080
Bq        -2.5702394355    -0.2700132275     1.2001503485
Bq        -2.5471875475    -0.4173091318     0.6189683399
Bq        -2.5740814168    -0.2454639102     1.2970140166
Bq        -2.5433455662    -0.4418584492     0.5221046718
Bq        -2.5779233982    -0.2209145928     1.3938776846
Bq        -2.5395035849    -0.4664077665     0.4252410037
Bq        -2.5587134915    -0.3436611797     0.9095593442
Bq        -2.5615825186    -0.2221720303     0.9818929829
Bq        -2.5538985560    -0.2712706651     0.7881656467
Bq        -2.5654245000    -0.1976227130     1.0787566509
Bq        -2.5500565746    -0.2958199825     0.6913019786
Bq        -2.5692664813    -0.1730733956     1.1756203190
Bq        -2.5462145933    -0.3203692998     0.5944383105
Bq        -2.5731084626    -0.1485240782     1.2724839871
Bq        -2.5423726120    -0.3449186172     0.4975746424
Bq        -2.5769504439    -0.1239747608     1.3693476552
Bq        -2.5385306307    -0.3694679346     0.4007109743
Bq        -2.5577405373    -0.2467213477     0.8850293148
Bq        -2.5606095644    -0.1252321984     0.9573629534
Bq        -2.5529256017    -0.1743308332     0.7636356173
Bq        -2.5644515457    -0.1006828810     1.0542266215
Bq        -2.5490836204    -0.1988801505     0.6667719492
Bq        -2.5682935271    -0.0761335637     1.1510902896
Bq        -2.5452416391    -0.2234294679     0.5699082811
Bq        -2.5721355084    -0.0515842463     1.2479539577
Bq        -2.5413996578    -0.2479787853     0.4730446130
Bq        -2.5759774897    -0.0270349289     1.3448176258
Bq        -2.5375576764    -0.2725281027     0.3761809449
Bq        -2.5567675831    -0.1497815158     0.8604992853
Bq        -2.5596366102    -0.0282923665     0.9328329240
Bq        -2.5519526475    -0.0773910012     0.7391055878
Bq        -2.5634785915    -0.0037430491     1.0296965921
Bq        -2.5481106662    -0.1019403186     0.6422419197
Bq        -2.5673205728     0.0208062683     1.1265602602
Bq        -2.5442686849    -0.1264896360     0.5453782516
Bq        -2.5711625542     0.0453555857     1.2234239283
Bq        -2.5404267035    -0.1510389533     0.4485145836
Bq        -2.5750045355     0.0699049030     1.3202875964
Bq        -2.5365847222    -0.1755882707     0.3516509155
Bq        -2.5557946289    -0.0528416838     0.8359692559
Bq        -2.5586636560     0.0686474655     0.9083028946
Bq        -2.5509796933     0.0195488307     0.7145755584
Bq        -2.5625056373     0.0931967828     1.0051665627
Bq        -2.5471377120    -0.0050004867     0.6177118903
Bq        -2.5663476186     0.1177461002     1.1020302308
Bq        -2.5432957306    -0.0295498040     0.5208482222
Bq        -2.5701895999     0.1422954176     1.1988938988
Bq        -2.5394537493    -0.0540991214     0.4239845541
Bq        -2.5740315813     0.1668447350     1.2957575669
Bq        -2.5356117680    -0.0786484388     0.3271208860
Bq        -2.5548216746     0.0440981481     0.8114392265
Bq        -2.5576907017     0.1655872974     0.8837728652
Bq        -2.5500067391     0.1164886627     0.6900455290
Bq        -2.5615326831     0.1901366148     0.9806365332
Bq        -2.5461647577     0.0919393453     0.5931818609
Bq        -2.5653746644     0.2146859322     1.0775002013
Bq        -2.5423227764     0.0673900279     0.4963181928
Bq        -2.5692166457     0.2392352495     1.1743638694
Bq        -2.5384807951     0.0428407105     0.3994545247
Bq        -2.5730586271     0.2637845669     1.2712275375
Bq        -2.5346388138     0.0182913932     0.3025908566
Bq        -2.5538487204     0.1410379800     0.7869091971
Bq        -2.5567177475     0.2625271294     0.8592428357
Bq        -2.5490337849     0.2134284946     0.6655154995
Bq        -2.5605597288     0.2870764467     0.9561065038
Bq        -2.5451918035     0.1888791772     0.5686518315
Bq        -2.5644017102     0.3116257641     1.0529701719
Bq        -2.5413498222     0.1643298598     0.4717881634
Bq        -2.5682436915     0.3361750815     1.1498338400
Bq        -2.5375078409     0.1397805425     0.3749244953
Bq        -2.5720856728     0.3607243989     1.2466975081
Bq        -2.5336658595     0.1152312251     0.2780608272
Bq        -2.5528757662     0.2379778120     0.7623791676
Bq        -2.5557447933     0.3594669613     0.8347128063
Bq        -2.5480608306     0.3103683265     0.6409854701
Bq        -2.5595867746     0.3840162787     0.9315764744
Bq        -2.5442188493     0.2858190092     0.5441218020
Bq        -2.5634287559     0.4085655960     1.0284401425
Bq        -2.5403768680     0.2612696918     0.4472581339
Bq        -2.5672707373     0.4331149134     1.1253038106
Bq        -2.5365348866     0.2367203744     0.3503944658
Bq        -2.5711127186     0.4576642308     1.2221674787
Bq        -2.5326929053     0.2121710570     0.2535307978
Bq        -2.5519028120     0.3349176439     0.7378491382
Bq        -2.5547718391     0.4564067932     0.8101827769
Bq        -2.5470878764     0.4073081585     0.6164554407
Bq        -2.5586138204     0.4809561106     0.9070464450
Bq        -2.5432458951     0.3827588411     0.5195917726
Bq        -2.5624558017     0.5055054280     1.0039101130
Bq        -2.5394039137     0.3582095237     0.4227281045
Bq        -2.5662977830     0.5300547454     1.1007737811
Bq        -2.5355619324     0.3336602064     0.3258644364
Bq        -2.5701397644     0.5546040627     1.1976374492
Bq        -2.5317199511     0.3091108890     0.2290007683
Bq        -2.5509298577     0.4318574759     0.7133191088
Bq        -2.5537988848     0.5533466252     0.7856527474
Bq        -2.5461149222     0.5042479904     0.5919254113
Bq        -2.5576408662     0.5778959425     0.8825164155
Bq        -2.5422729408     0.4796986730     0.4950617432
Bq        -2.5614828475     0.6024452599     0.9793800836
Bq        -2.5384309595     0.4551493557     0.3981980751
Bq        -2.5653248288     0.6269945773     1.0762437517
Bq        -2.5345889782     0.4306000383     0.3013344070
Bq        -2.5691668102     0.6515438947     1.1731074198
Bq        -2.5307469969     0.4060507209     0.2044707389
Bq        -2.5499569035     0.5287973078     0.6887890794
Bq        -2.5528259306     0.6502864571     0.7611227180
Bq        -2.5451419680     0.6011878224     0.5673953818
Bq        -2.5566679119     0.6748357745     0.8579863861
Bq        -2.5412999866     0.5766385050     0.4705317137
Bq        -2.5605098933     0.6993850919     0.9548500542
Bq        -2.5374580053     0.5520891876     0.3736680457
Bq        -2.5643518746     0.7239344092     1.0517137223
Bq        -2.5336160240     0.5275398702     0.2768043776
Bq        -2.5681938559     0.7484837266     1.1485773904
Bq        -2.5297740426     0.5029905529     0.1799407095
Bq        -2.5489839493     0.6257371397     0.6642590499
Bq        -2.5518529764     0.7472262890     0.7365926886
Bq        -2.5441690137     0.6981276543     0.5428653524
Bq        -2.5556949577     0.7717756064     0.8334563567
Bq        -2.5403270324     0.6735783369     0.4460016843
Bq        -2.5595369390     0.7963249238     0.9303200248
Bq        -2.5364850511     0.6490290195     0.3491380162
Bq        -2.5633789204     0.8208742412     1.0271836929
Bq        -2.5326430697     0.6244797022     0.2522743481
Bq        -2.5672209017     0.8454235585     1.1240473609
Bq        -2.5288010884     0.5999303848     0.1554106800
Bq        -2.5480109951     0.7226769717     0.6397290205
Bq        -2.5508800222     0.8441661210     0.7120626592
Bq        -2.5431960595     0.7950674862     0.5183353230

1
2
3
4
5
6
7
8
9
10
11
12
13
14
15
16
17
18
19
20
21
22
23
24
25
26
27
28
29
30
31
32
33
34
35
36
37
38
39
40
41
42
43
44
45
46
47
48
49
50
51
52
53
54
55
56
57
58
59
60
61
62
63
64
65
66
67
68
69
70
71
72
73
74
75
76
77
78
79
80
81
82
83
84
85
86
87
88
89
90
91
92
93
94
95
96
97
98
99
100
101
102
103
104
105
106
107
108
109
110
111
112
113
114
115
116
117
118
119
120
121
122
123
124
125
126
127
128
129
130
131
132
133
134
135
136
137
138
139
140
141
142
143
144
145
146
147
148
149
150
151
152
153
154
155
156
157
158
159
160
161
162
163
164
165
166
167
168
169
170
171
172
173
174
175
176
177
178
179
180
181
182
183
184
185
186
187
188
189
190
191
192
193
194
195
196
197
198
199
200
201
202
203
204
205
206
207
208
209
210
211
212
213
214
215
216
217
218
219
220
221
222
223
224
225
226
227
228
229
230
231
232
233
234
235
236

