%nproc=8
%mem=1000MB
# rb3lyp/6-311+g** NMR geom=connectivity

Title

0 1
C    -4.0500558   -0.5771862    0.8136712
H    -5.0263804   -1.0082727    1.0024760
C    -3.9381552    0.6617804    0.2400876
H    -4.8252424    1.2338890   -0.0111295
C    -2.6768410    1.2433246    0.0057578
C    -1.4974121    0.5051527    0.2848253
C    -1.6508332   -0.7338728    0.9404026
H    -0.7713646   -1.2730967    1.2633753
C    -2.8898548   -1.2624035    1.1994307
H    -2.9683706   -2.2124563    1.7152676
C    -2.5773185    2.5963696   -0.4192930
H    -3.4870728    3.1412239   -0.6474055
C    -1.3741895    3.2147896   -0.4364030
H    -1.2997315    4.2742019   -0.6578144
C    -0.1719488    2.4994090   -0.1734588
C    -0.2043917    1.1018437    0.0192689
C     1.0513491    3.2042560   -0.0676222
H     1.0427344    4.2819499   -0.1896997
C     2.1942091    2.5487446    0.2579577
H     3.1168527    3.0912848    0.4334727
C     2.2216473    1.1336562    0.2934990
C     1.0486931    0.3945528    0.0302412
C     3.4483363    0.4614633    0.5573939
H     4.3095794    1.0606054    0.8334846
C     3.5427346   -0.8855926    0.4749463
H     4.4731467   -1.3939704    0.7038822
C     2.4490052   -1.6474447   -0.0196319
C     1.2150704   -1.0057258   -0.3013573
C     0.2531113   -1.7434440   -1.0216591
H    -0.6541356   -1.2535051   -1.3462847
C     0.4494193   -3.0628597   -1.3413779
H    -0.3083162   -3.5944309   -1.9054060
C     1.6251726   -3.7207967   -0.9552541
H     1.7670048   -4.7687404   -1.1927019
C     2.6109872   -3.0144177   -0.3183050
H     3.5525612   -3.4902813   -0.0646367
Bq         0.7220470867    -1.1496369655     0.3426055754
Bq         0.8247625440    -1.0927263294    -0.0397695210
Bq         0.6963682223    -1.1638646245     0.4381993495
Bq         0.8504414083    -1.0784986703    -0.1353632951
Bq         0.6706893580    -1.1780922835     0.5337931235
Bq         0.8761202726    -1.0642710113    -0.2309570692
Bq         0.6450104937    -1.1923199426     0.6293868976
Bq         0.9017991369    -1.0500433523    -0.3265508433
Bq         0.7734048153    -1.1211816474     0.1514180272
Bq         0.7440349004    -1.0364266124     0.2607523408
Bq         0.7953926291    -1.0079712944     0.0695647926
Bq         0.7183560361    -1.0506542714     0.3563461149
Bq         0.8210714934    -0.9937436353    -0.0260289815
Bq         0.6926771718    -1.0648819305     0.4519398890
Bq         0.8467503577    -0.9795159763    -0.1216227556
Bq         0.6669983075    -1.0791095895     0.5475336631
Bq         0.8724292221    -0.9652883173    -0.2172165297
Bq         0.6413194432    -1.0933372485     0.6431274372
Bq         0.8981080864    -0.9510606583    -0.3128103037
Bq         0.7697137648    -1.0221989534     0.1651585667
Bq         0.7403438499    -0.9374439184     0.2744928804
Bq         0.7917015786    -0.9089886003     0.0833053322
Bq         0.7146649856    -0.9516715774     0.3700866545
Bq         0.8173804429    -0.8947609413    -0.0122884419
Bq         0.6889861213    -0.9658992364     0.4656804286
Bq         0.8430593072    -0.8805332823    -0.1078822160
Bq         0.6633072569    -0.9801268955     0.5612742027
Bq         0.8687381715    -0.8663056232    -0.2034759901
Bq         0.6376283926    -0.9943545545     0.6568679768
Bq         0.8944170358    -0.8520779642    -0.2990697642
Bq         0.7660227142    -0.9232162594     0.1788991063
Bq         0.7366527994    -0.8384612243     0.2882334199
Bq         0.7880105280    -0.8100059063     0.0970458717
Bq         0.7109739351    -0.8526888834     0.3838271940
Bq         0.8136893923    -0.7957782473     0.0014520977
Bq         0.6852950707    -0.8669165424     0.4794209681
Bq         0.8393682567    -0.7815505882    -0.0941416764
Bq         0.6596162064    -0.8811442014     0.5750147422
Bq         0.8650471210    -0.7673229292    -0.1897354505
Bq         0.6339373421    -0.8953718605     0.6706085163
Bq         0.8907259853    -0.7530952702    -0.2853292246
Bq         0.7623316637    -0.8242335653     0.1926396458
Bq         0.7329617488    -0.7394785303     0.3019739595
Bq         0.7843194775    -0.7110232123     0.1107864113
Bq         0.7072828845    -0.7537061893     0.3975677336
Bq         0.8099983418    -0.6967955532     0.0151926372
Bq         0.6816040202    -0.7679338484     0.4931615077
Bq         0.8356772061    -0.6825678942    -0.0804011369
Bq         0.6559251559    -0.7821615074     0.5887552818
Bq         0.8613560705    -0.6683402352    -0.1759949110
Bq         0.6302462916    -0.7963891664     0.6843490559
Bq         0.8870349348    -0.6541125761    -0.2715886851
Bq         0.7586406132    -0.7252508713     0.2063801854
Bq         0.7292706983    -0.6404958363     0.3157144991
Bq         0.7806284270    -0.6120405182     0.1245269509
Bq         0.7035918340    -0.6547234953     0.4113082732
Bq         0.8063072913    -0.5978128592     0.0289331768
Bq         0.6779129697    -0.6689511543     0.5069020472
Bq         0.8319861556    -0.5835852002    -0.0666605973
Bq         0.6522341053    -0.6831788134     0.6024958213
Bq         0.8576650199    -0.5693575411    -0.1622543714
Bq         0.6265552410    -0.6974064724     0.6980895954
Bq         0.8833438842    -0.5551298821    -0.2578481455
Bq         0.7549495626    -0.6262681772     0.2201207250
Bq         0.7255796478    -0.5415131422     0.3294550386
Bq         0.7769373764    -0.5130578242     0.1382674904
Bq         0.6999007834    -0.5557408013     0.4250488127
Bq         0.8026162407    -0.4988301652     0.0426737163
Bq         0.6742219191    -0.5699684603     0.5206425868
Bq         0.8282951051    -0.4846025061    -0.0529200578
Bq         0.6485430548    -0.5841961193     0.6162363609
Bq         0.8539739694    -0.4703748471    -0.1485138319
Bq         0.6228641905    -0.5984237784     0.7118301350
Bq         0.8796528337    -0.4561471881    -0.2441076060
Bq         0.7512585121    -0.5272854832     0.2338612645
Bq         0.7218885972    -0.4425304482     0.3431955782
Bq         0.7732463259    -0.4140751301     0.1520080300
Bq         0.6962097329    -0.4567581072     0.4387893523
Bq         0.7989251902    -0.3998474711     0.0564142559
Bq         0.6705308686    -0.4709857663     0.5343831264
Bq         0.8246040545    -0.3856198121    -0.0391795182
Bq         0.6448520043    -0.4852134253     0.6299769005
Bq         0.8502829188    -0.3713921531    -0.1347732923
Bq         0.6191731399    -0.4994410843     0.7255706746
Bq         0.8759617832    -0.3571644940    -0.2303670664
Bq         0.7475674616    -0.4283027892     0.2476018041
Bq         0.7181975467    -0.3435477542     0.3569361177
Bq         0.7695552753    -0.3150924361     0.1657485695
Bq         0.6925186824    -0.3577754132     0.4525298918
Bq         0.7952341397    -0.3008647771     0.0701547954
Bq         0.6668398181    -0.3720030722     0.5481236659
Bq         0.8209130040    -0.2866371181    -0.0254389786
Bq         0.6411609537    -0.3862307313     0.6437174400
Bq         0.8465918683    -0.2724094590    -0.1210327527
Bq         0.6154820894    -0.4004583903     0.7393112141
Bq         0.8722707326    -0.2581818000    -0.2166265268
Bq         0.7438764110    -0.3293200951     0.2613423436
Bq         0.7145064962    -0.2445650601     0.3706766573
Bq         0.7658642248    -0.2161097421     0.1794891091
Bq         0.6888276318    -0.2587927192     0.4662704314
Bq         0.7915430891    -0.2018820830     0.0838953350
Bq         0.6631487675    -0.2730203782     0.5618642055
Bq         0.8172219535    -0.1876544240    -0.0116984391
Bq         0.6374699032    -0.2872480372     0.6574579796
Bq         0.8429008178    -0.1734267650    -0.1072922132
Bq         0.6117910389    -0.3014756962     0.7530517537
Bq         0.8685796821    -0.1591991060    -0.2028859873
Bq         0.7401853605    -0.2303374011     0.2750828832
Bq         0.7108154456    -0.1455823661     0.3844171969
Bq         0.7621731743    -0.1171270480     0.1932296487
Bq         0.6851365813    -0.1598100251     0.4800109709
Bq         0.7878520386    -0.1028993890     0.0976358746
Bq         0.6594577170    -0.1740376842     0.5756047450
Bq         0.8135309029    -0.0886717300     0.0020421005
Bq         0.6337788527    -0.1882653432     0.6711985191
Bq         0.8392097672    -0.0744440710    -0.0935516736
Bq         0.6080999883    -0.2024930022     0.7667922932
Bq         0.8648886316    -0.0602164119    -0.1891454477
Bq         0.7364943100    -0.1313547071     0.2888234228
Bq         0.7071243951    -0.0465996721     0.3981577364
Bq         0.7584821237    -0.0181443540     0.2069701882
Bq         0.6814455308    -0.0608273311     0.4937515105
Bq         0.7841609881    -0.0039166950     0.1113764141
Bq         0.6557666664    -0.0750549901     0.5893452846
Bq         0.8098398524     0.0103109641     0.0157826400
Bq         0.6300878021    -0.0892826491     0.6849390587
Bq         0.8355187167     0.0245386231    -0.0798111341
Bq         0.6044089378    -0.1035103082     0.7805328328
Bq         0.8611975810     0.0387662821    -0.1754049082
Bq         0.7328032594    -0.0323720130     0.3025639623
Bq         0.7034333446     0.0523830220     0.4118982760
Bq         0.7547910732     0.0808383400     0.2207107278
Bq         0.6777544802     0.0381553629     0.5074920501
Bq         0.7804699375     0.0950659991     0.1251169537
Bq         0.6520756159     0.0239277039     0.6030858242
Bq         0.8061488018     0.1092936581     0.0295231796
Bq         0.6263967516     0.0097000449     0.6986795983
Bq         0.8318276662     0.1235213171    -0.0660705945
Bq         0.6007178873    -0.0045276141     0.7942733723
Bq         0.8575065305     0.1377489761    -0.1616643686
Bq         0.7291122089     0.0666106810     0.3163045019
Bq         0.6997422940     0.1513657160     0.4256388155
Bq         0.7511000227     0.1798210341     0.2344512673
Bq         0.6740634297     0.1371380570     0.5212325896
Bq         0.7767788870     0.1940486931     0.1388574932
Bq         0.6483845654     0.1229103980     0.6168263637
Bq         0.8024577513     0.2082763521     0.0432637191
Bq         0.6227057011     0.1086827389     0.7124201378
Bq         0.8281366156     0.2225040112    -0.0523300549
Bq         0.5970268367     0.0944550799     0.8080139119
Bq         0.8538154800     0.2367316702    -0.1479238290
Bq         0.7254211583     0.1655933750     0.3300450414
Bq         0.6960512435     0.2503484100     0.4393793551
Bq         0.7474089721     0.2788037281     0.2481918069
Bq         0.6703723792     0.2361207510     0.5349731292
Bq         0.7730878365     0.2930313871     0.1525980328
Bq         0.6446935148     0.2218930920     0.6305669033
Bq         0.7987667008     0.3072590462     0.0570042587
Bq         0.6190146505     0.2076654330     0.7261606774
Bq         0.8244455651     0.3214867052    -0.0385895154
Bq         0.5933357862     0.1934377739     0.8217544515
Bq         0.8501244294     0.3357143642    -0.1341832895
Bq         0.7217301078     0.2645760691     0.3437855810
Bq         0.6923601930     0.3493311041     0.4531198946
Bq         0.7437179216     0.3777864221     0.2619323465
Bq         0.6666813286     0.3351034451     0.5487136687
Bq         0.7693967859     0.3920140812     0.1663385724
Bq         0.6410024643     0.3208757860     0.6443074428
Bq         0.7950756502     0.4062417402     0.0707447983
Bq         0.6153236000     0.3066481270     0.7399012169
Bq         0.8207545146     0.4204693992    -0.0248489758
Bq         0.5896447357     0.2924204680     0.8354949910
Bq         0.8464333789     0.4346970583    -0.1204427499
Bq         0.7180390573     0.3635587631     0.3575261206
Bq         0.6886691424     0.4483137981     0.4668604342
Bq         0.7400268711     0.4767691162     0.2756728860
Bq         0.6629902781     0.4340861391     0.5624542083
Bq         0.7657057354     0.4909967752     0.1800791119
Bq         0.6373114138     0.4198584801     0.6580479824
Bq         0.7913845997     0.5052244342     0.0844853378
Bq         0.6116325494     0.4056308210     0.7536417565
Bq         0.8170634640     0.5194520933    -0.0111084363
Bq         0.5859536851     0.3914031620     0.8492355306
Bq         0.8427423284     0.5336797523    -0.1067022104
Bq         0.7143480067     0.4625414571     0.3712666601
Bq         0.6849780919     0.5472964922     0.4806009738
Bq         0.7363358205     0.5757518102     0.2894134256
Bq         0.6592992276     0.5330688331     0.5761947479
Bq         0.7620146848     0.5899794692     0.1938196515
Bq         0.6336203632     0.5188411741     0.6717885220
Bq         0.7876935492     0.6042071283     0.0982258774
Bq         0.6079414989     0.5046135151     0.7673822960
Bq         0.8133724135     0.6184347873     0.0026321033
Bq         0.5822626346     0.4903858560     0.8629760701
Bq         0.8390512778     0.6326624463    -0.0929616708
Bq         0.7106569562     0.5615241512     0.3850071997
Bq         0.6812870413     0.6462791862     0.4943415133
Bq         0.7326447700     0.6747345042     0.3031539651
Bq         0.6556081770     0.6320515272     0.5899352874
Bq         0.7583236343     0.6889621633     0.2075601910

1
2
3
4
5
6
7
8
9
10
11
12
13
14
15
16
17
18
19
20
21
22
23
24
25
26
27
28
29
30
31
32
33
34
35
36
37
38
39
40
41
42
43
44
45
46
47
48
49
50
51
52
53
54
55
56
57
58
59
60
61
62
63
64
65
66
67
68
69
70
71
72
73
74
75
76
77
78
79
80
81
82
83
84
85
86
87
88
89
90
91
92
93
94
95
96
97
98
99
100
101
102
103
104
105
106
107
108
109
110
111
112
113
114
115
116
117
118
119
120
121
122
123
124
125
126
127
128
129
130
131
132
133
134
135
136
137
138
139
140
141
142
143
144
145
146
147
148
149
150
151
152
153
154
155
156
157
158
159
160
161
162
163
164
165
166
167
168
169
170
171
172
173
174
175
176
177
178
179
180
181
182
183
184
185
186
187
188
189
190
191
192
193
194
195
196
197
198
199
200
201
202
203
204
205
206
207
208
209
210
211
212
213
214
215
216
217
218
219
220
221
222
223
224
225
226
227
228
229
230
231
232
233
234
235
236

