%nproc=8
%mem=1000MB
# rb3lyp/6-311+g** NMR geom=connectivity

Title

0 1
C    -4.0500558   -0.5771862    0.8136712
H    -5.0263804   -1.0082727    1.0024760
C    -3.9381552    0.6617804    0.2400876
H    -4.8252424    1.2338890   -0.0111295
C    -2.6768410    1.2433246    0.0057578
C    -1.4974121    0.5051527    0.2848253
C    -1.6508332   -0.7338728    0.9404026
H    -0.7713646   -1.2730967    1.2633753
C    -2.8898548   -1.2624035    1.1994307
H    -2.9683706   -2.2124563    1.7152676
C    -2.5773185    2.5963696   -0.4192930
H    -3.4870728    3.1412239   -0.6474055
C    -1.3741895    3.2147896   -0.4364030
H    -1.2997315    4.2742019   -0.6578144
C    -0.1719488    2.4994090   -0.1734588
C    -0.2043917    1.1018437    0.0192689
C     1.0513491    3.2042560   -0.0676222
H     1.0427344    4.2819499   -0.1896997
C     2.1942091    2.5487446    0.2579577
H     3.1168527    3.0912848    0.4334727
C     2.2216473    1.1336562    0.2934990
C     1.0486931    0.3945528    0.0302412
C     3.4483363    0.4614633    0.5573939
H     4.3095794    1.0606054    0.8334846
C     3.5427346   -0.8855926    0.4749463
H     4.4731467   -1.3939704    0.7038822
C     2.4490052   -1.6474447   -0.0196319
C     1.2150704   -1.0057258   -0.3013573
C     0.2531113   -1.7434440   -1.0216591
H    -0.6541356   -1.2535051   -1.3462847
C     0.4494193   -3.0628597   -1.3413779
H    -0.3083162   -3.5944309   -1.9054060
C     1.6251726   -3.7207967   -0.9552541
H     1.7670048   -4.7687404   -1.1927019
C     2.6109872   -3.0144177   -0.3183050
H     3.5525612   -3.4902813   -0.0646367
Bq        -0.2302593073     3.4860909007     0.2377706016
Bq        -0.2148913820     3.3878936312    -0.1496840708
Bq        -0.2341012886     3.5106402181     0.3346342697
Bq        -0.2110494006     3.3633443138    -0.2465477389
Bq        -0.2379432699     3.5351895355     0.4314979378
Bq        -0.2072074193     3.3387949965    -0.3434114069
Bq        -0.2417852513     3.5597388528     0.5283616059
Bq        -0.2033654380     3.3142456791    -0.4402750750
Bq        -0.2225753446     3.4369922660     0.0440432654
Bq        -0.2254443717     3.5584814153     0.1163769041
Bq        -0.2177604091     3.5093827805    -0.0773504321
Bq        -0.2292863531     3.5830307327     0.2132405722
Bq        -0.2139184277     3.4848334632    -0.1742141002
Bq        -0.2331283344     3.6075800500     0.3101042403
Bq        -0.2100764464     3.4602841458    -0.2710777683
Bq        -0.2369703157     3.6321293674     0.4069679083
Bq        -0.2062344651     3.4357348284    -0.3679414364
Bq        -0.2408122970     3.6566786848     0.5038315764
Bq        -0.2023924837     3.4111855110    -0.4648051045
Bq        -0.2216023904     3.5339320979     0.0195132360
Bq        -0.2244714175     3.6554212472     0.0918468746
Bq        -0.2167874548     3.6063226125    -0.1018804615
Bq        -0.2283133988     3.6799705646     0.1887105427
Bq        -0.2129454735     3.5817732951    -0.1987441296
Bq        -0.2321553802     3.7045198820     0.2855742108
Bq        -0.2091034922     3.5572239777    -0.2956077977
Bq        -0.2359973615     3.7290691993     0.3824378789
Bq        -0.2052615109     3.5326746603    -0.3924714658
Bq        -0.2398393428     3.7536185167     0.4793015470
Bq        -0.2014195295     3.5081253430    -0.4893351339
Bq        -0.2206294362     3.6308719298    -0.0050167934
Bq        -0.2234984633     3.7523610792     0.0673168452
Bq        -0.2158145006     3.7032624444    -0.1264104910
Bq        -0.2273404446     3.7769103965     0.1641805133
Bq        -0.2119725193     3.6787131270    -0.2232741590
Bq        -0.2311824259     3.8014597139     0.2610441814
Bq        -0.2081305380     3.6541638097    -0.3201378271
Bq        -0.2350244073     3.8260090313     0.3579078495
Bq        -0.2042885566     3.6296144923    -0.4170014952
Bq        -0.2388663886     3.8505583487     0.4547715176
Bq        -0.2004465753     3.6050651749    -0.5138651633
Bq        -0.2196564819     3.7278117618    -0.0295468229
Bq        -0.2225255090     3.8493009111     0.0427868158
Bq        -0.2148415464     3.8002022763    -0.1509405204
Bq        -0.2263674904     3.8738502285     0.1396504839
Bq        -0.2109995651     3.7756529590    -0.2478041885
Bq        -0.2302094717     3.8983995458     0.2365141520
Bq        -0.2071575837     3.7511036416    -0.3446678566
Bq        -0.2340514530     3.9229488632     0.3333778201
Bq        -0.2033156024     3.7265543242    -0.4415315247
Bq        -0.2378934344     3.9474981806     0.4302414882
Bq        -0.1994736211     3.7020050068    -0.5383951927
Bq        -0.2186835277     3.8247515937    -0.0540768523
Bq        -0.2215525548     3.9462407430     0.0182567864
Bq        -0.2138685922     3.8971421083    -0.1754705498
Bq        -0.2253945362     3.9707900604     0.1151204545
Bq        -0.2100266108     3.8725927909    -0.2723342179
Bq        -0.2292365175     3.9953393778     0.2119841225
Bq        -0.2061846295     3.8480434735    -0.3691978860
Bq        -0.2330784988     4.0198886952     0.3088477906
Bq        -0.2023426482     3.8234941562    -0.4660615541
Bq        -0.2369204801     4.0444380125     0.4057114587
Bq        -0.1985006668     3.7989448388    -0.5629252222
Bq        -0.2177105735     3.9216914257    -0.0786068817
Bq        -0.2205796006     4.0431805750    -0.0062732431
Bq        -0.2128956379     3.9940819402    -0.2000005792
Bq        -0.2244215819     4.0677298924     0.0905904250
Bq        -0.2090536566     3.9695326228    -0.2968642473
Bq        -0.2282635633     4.0922792097     0.1874540931
Bq        -0.2052116753     3.9449833055    -0.3937279154
Bq        -0.2321055446     4.1168285271     0.2843177612
Bq        -0.2013696940     3.9204339881    -0.4905915835
Bq        -0.2359475259     4.1413778445     0.3811814293
Bq        -0.1975277126     3.8958846707    -0.5874552516
Bq        -0.2167376193     4.0186312576    -0.1031369112
Bq        -0.2196066464     4.1401204069    -0.0308032725
Bq        -0.2119226837     4.0910217722    -0.2245306087
Bq        -0.2234486277     4.1646697243     0.0660603956
Bq        -0.2080807024     4.0664724548    -0.3213942768
Bq        -0.2272906090     4.1892190417     0.1629240637
Bq        -0.2042387211     4.0419231374    -0.4182579448
Bq        -0.2311325904     4.2137683590     0.2597877318
Bq        -0.2003967397     4.0173738200    -0.5151216129
Bq        -0.2349745717     4.2383176764     0.3566513999
Bq        -0.1965547584     3.9928245027    -0.6119852810
Bq        -0.2157646650     4.1155710895    -0.1276669406
Bq        -0.2186336922     4.2370602389    -0.0553333019
Bq        -0.2109497295     4.1879616041    -0.2490606381
Bq        -0.2224756735     4.2616095562     0.0415303662
Bq        -0.2071077482     4.1634122867    -0.3459243062
Bq        -0.2263176548     4.2861588736     0.1383940343
Bq        -0.2032657668     4.1388629694    -0.4427879743
Bq        -0.2301596361     4.3107081910     0.2352577024
Bq        -0.1994237855     4.1143136520    -0.5396516424
Bq        -0.2340016175     4.3352575084     0.3321213704
Bq        -0.1955818042     4.0897643346    -0.6365153105
Bq        -0.2147917108     4.2125109215    -0.1521969700
Bq        -0.2176607379     4.3340000708    -0.0798633313
Bq        -0.2099767753     4.2849014360    -0.2735906675
Bq        -0.2215027193     4.3585493882     0.0170003367
Bq        -0.2061347939     4.2603521187    -0.3704543356
Bq        -0.2253447006     4.3830987055     0.1138640048
Bq        -0.2022928126     4.2358028013    -0.4673180037
Bq        -0.2291866819     4.4076480229     0.2107276729
Bq        -0.1984508313     4.2112534839    -0.5641816718
Bq        -0.2330286632     4.4321973403     0.3075913410
Bq        -0.1946088500     4.1867041665    -0.6610453399
Bq        -0.2138187566     4.3094507534    -0.1767269994
Bq        -0.2166877837     4.4309399027    -0.1043933608
Bq        -0.2090038210     4.3818412680    -0.2981206969
Bq        -0.2205297650     4.4554892201    -0.0075296927
Bq        -0.2051618397     4.3572919506    -0.3949843650
Bq        -0.2243717464     4.4800385375     0.0893339754
Bq        -0.2013198584     4.3327426332    -0.4918480331
Bq        -0.2282137277     4.5045878549     0.1861976435
Bq        -0.1974778771     4.3081933159    -0.5887117012
Bq        -0.2320557090     4.5291371722     0.2830613116
Bq        -0.1936358957     4.2836439985    -0.6855753693
Bq        -0.2128458024     4.4063905854    -0.2012570289
Bq        -0.1654140631    -0.4160516942     1.1260713745
Bq        -0.1577301004    -0.4651503290     0.9323440383
Bq        -0.1692560444    -0.3915023768     1.2229350425
Bq        -0.1538881191    -0.4896996464     0.8354803702
Bq        -0.1730980257    -0.3669530595     1.3197987106
Bq        -0.1500461378    -0.5142489637     0.7386167021
Bq        -0.1769400071    -0.3424037421     1.4166623787
Bq        -0.1462041564    -0.5387982811     0.6417530340
Bq        -0.1807819884    -0.3178544247     1.5135260468
Bq        -0.1423621751    -0.5633475985     0.5448893659
Bq        -0.1615720818    -0.4406010116     1.0292077064
Bq        -0.1644411089    -0.3191118623     1.1015413450
Bq        -0.1567571462    -0.3682104970     0.9078140088
Bq        -0.1682830902    -0.2945625449     1.1984050131
Bq        -0.1529151649    -0.3927598144     0.8109503408
Bq        -0.1721250715    -0.2700132275     1.2952686812
Bq        -0.1490731835    -0.4173091318     0.7140866727
Bq        -0.1759670529    -0.2454639102     1.3921323493
Bq        -0.1452312022    -0.4418584492     0.6172230046
Bq        -0.1798090342    -0.2209145928     1.4889960174
Bq        -0.1413892209    -0.4664077665     0.5203593365
Bq        -0.1605991275    -0.3436611797     1.0046776769
Bq        -0.1634681546    -0.2221720303     1.0770113156
Bq        -0.1557841920    -0.2712706651     0.8832839794
Bq        -0.1673101360    -0.1976227130     1.1738749837
Bq        -0.1519422107    -0.2958199825     0.7864203113
Bq        -0.1711521173    -0.1730733956     1.2707386518
Bq        -0.1481002293    -0.3203692998     0.6895566432
Bq        -0.1749940986    -0.1485240782     1.3676023199
Bq        -0.1442582480    -0.3449186172     0.5926929751
Bq        -0.1788360800    -0.1239747608     1.4644659880
Bq        -0.1404162667    -0.3694679346     0.4958293071
Bq        -0.1596261733    -0.2467213477     0.9801476475
Bq        -0.1624952004    -0.1252321984     1.0524812862
Bq        -0.1548112378    -0.1743308332     0.8587539500
Bq        -0.1663371817    -0.1006828810     1.1493449543
Bq        -0.1509692564    -0.1988801505     0.7618902819
Bq        -0.1701791631    -0.0761335637     1.2462086223
Bq        -0.1471272751    -0.2234294679     0.6650266138
Bq        -0.1740211444    -0.0515842463     1.3430722904
Bq        -0.1432852938    -0.2479787853     0.5681629457
Bq        -0.1778631257    -0.0270349289     1.4399359585
Bq        -0.1394433124    -0.2725281027     0.4712992776
Bq        -0.1586532191    -0.1497815158     0.9556176181
Bq        -0.1615222462    -0.0282923665     1.0279512567
Bq        -0.1538382835    -0.0773910012     0.8342239206
Bq        -0.1653642275    -0.0037430491     1.1248149248
Bq        -0.1499963022    -0.1019403186     0.7373602525
Bq        -0.1692062089     0.0208062683     1.2216785929
Bq        -0.1461543209    -0.1264896360     0.6404965844
Bq        -0.1730481902     0.0453555857     1.3185422610
Bq        -0.1423123395    -0.1510389533     0.5436329163
Bq        -0.1768901715     0.0699049030     1.4154059291
Bq        -0.1384703582    -0.1755882707     0.4467692482
Bq        -0.1576802649    -0.0528416838     0.9310875887
Bq        -0.1605492920     0.0686474655     1.0034212273
Bq        -0.1528653293     0.0195488307     0.8096938911
Bq        -0.1643912733     0.0931967828     1.1002848954
Bq        -0.1490233480    -0.0050004867     0.7128302230
Bq        -0.1682332546     0.1177461002     1.1971485635
Bq        -0.1451813667    -0.0295498040     0.6159665550
Bq        -0.1720752360     0.1422954176     1.2940122316
Bq        -0.1413393853    -0.0540991214     0.5191028869
Bq        -0.1759172173     0.1668447350     1.3908758997
Bq        -0.1374974040    -0.0786484388     0.4222392188
Bq        -0.1567073106     0.0440981481     0.9065575592
Bq        -0.1595763377     0.1655872974     0.9788911979
Bq        -0.1518923751     0.1164886627     0.7851638617
Bq        -0.1634183191     0.1901366148     1.0757548660
Bq        -0.1480503938     0.0919393453     0.6883001936
Bq        -0.1672603004     0.2146859322     1.1726185341
Bq        -0.1442084124     0.0673900279     0.5914365255
Bq        -0.1711022817     0.2392352495     1.2694822022
Bq        -0.1403664311     0.0428407105     0.4945728574
Bq        -0.1749442631     0.2637845669     1.3663458702
Bq        -0.1365244498     0.0182913932     0.3977091893
Bq        -0.1557343564     0.1410379800     0.8820275298
Bq        -0.1586033835     0.2625271294     0.9543611685
Bq        -0.1509194209     0.2134284946     0.7606338323
Bq        -0.1624453648     0.2870764467     1.0512248366
Bq        -0.1470774395     0.1888791772     0.6637701642

1
2
3
4
5
6
7
8
9
10
11
12
13
14
15
16
17
18
19
20
21
22
23
24
25
26
27
28
29
30
31
32
33
34
35
36
37
38
39
40
41
42
43
44
45
46
47
48
49
50
51
52
53
54
55
56
57
58
59
60
61
62
63
64
65
66
67
68
69
70
71
72
73
74
75
76
77
78
79
80
81
82
83
84
85
86
87
88
89
90
91
92
93
94
95
96
97
98
99
100
101
102
103
104
105
106
107
108
109
110
111
112
113
114
115
116
117
118
119
120
121
122
123
124
125
126
127
128
129
130
131
132
133
134
135
136
137
138
139
140
141
142
143
144
145
146
147
148
149
150
151
152
153
154
155
156
157
158
159
160
161
162
163
164
165
166
167
168
169
170
171
172
173
174
175
176
177
178
179
180
181
182
183
184
185
186
187
188
189
190
191
192
193
194
195
196
197
198
199
200
201
202
203
204
205
206
207
208
209
210
211
212
213
214
215
216
217
218
219
220
221
222
223
224
225
226
227
228
229
230
231
232
233
234
235
236

