%nproc=8
%mem=1000MB
# rb3lyp/6-311+g** NMR geom=connectivity

Title

0 1
C    -4.0500558   -0.5771862    0.8136712
H    -5.0263804   -1.0082727    1.0024760
C    -3.9381552    0.6617804    0.2400876
H    -4.8252424    1.2338890   -0.0111295
C    -2.6768410    1.2433246    0.0057578
C    -1.4974121    0.5051527    0.2848253
C    -1.6508332   -0.7338728    0.9404026
H    -0.7713646   -1.2730967    1.2633753
C    -2.8898548   -1.2624035    1.1994307
H    -2.9683706   -2.2124563    1.7152676
C    -2.5773185    2.5963696   -0.4192930
H    -3.4870728    3.1412239   -0.6474055
C    -1.3741895    3.2147896   -0.4364030
H    -1.2997315    4.2742019   -0.6578144
C    -0.1719488    2.4994090   -0.1734588
C    -0.2043917    1.1018437    0.0192689
C     1.0513491    3.2042560   -0.0676222
H     1.0427344    4.2819499   -0.1896997
C     2.1942091    2.5487446    0.2579577
H     3.1168527    3.0912848    0.4334727
C     2.2216473    1.1336562    0.2934990
C     1.0486931    0.3945528    0.0302412
C     3.4483363    0.4614633    0.5573939
H     4.3095794    1.0606054    0.8334846
C     3.5427346   -0.8855926    0.4749463
H     4.4731467   -1.3939704    0.7038822
C     2.4490052   -1.6474447   -0.0196319
C     1.2150704   -1.0057258   -0.3013573
C     0.2531113   -1.7434440   -1.0216591
H    -0.6541356   -1.2535051   -1.3462847
C     0.4494193   -3.0628597   -1.3413779
H    -0.3083162   -3.5944309   -1.9054060
C     1.6251726   -3.7207967   -0.9552541
H     1.7670048   -4.7687404   -1.1927019
C     2.6109872   -3.0144177   -0.3183050
H     3.5525612   -3.4902813   -0.0646367
Bq         2.3967458134    -0.6262681772     0.6611480154
Bq         2.3673758986    -0.5415131422     0.7704823290
Bq         2.4187336272    -0.5130578242     0.5792947808
Bq         2.3416970342    -0.5557408013     0.8660761031
Bq         2.4444124915    -0.4988301652     0.4837010067
Bq         2.3160181699    -0.5699684603     0.9616698772
Bq         2.4700913559    -0.4846025061     0.3881072326
Bq         2.2903393056    -0.5841961193     1.0572636513
Bq         2.4957702202    -0.4703748471     0.2925134586
Bq         2.2646604413    -0.5984237784     1.1528574254
Bq         2.5214490845    -0.4561471881     0.1969196845
Bq         2.3930547629    -0.5272854832     0.6748885549
Bq         2.3636848480    -0.4425304482     0.7842228686
Bq         2.4150425767    -0.4140751301     0.5930353204
Bq         2.3380059837    -0.4567581072     0.8798166427
Bq         2.4407214410    -0.3998474711     0.4974415463
Bq         2.3123271194    -0.4709857663     0.9754104168
Bq         2.4664003053    -0.3856198121     0.4018477722
Bq         2.2866482551    -0.4852134253     1.0710041909
Bq         2.4920791696    -0.3713921531     0.3062539981
Bq         2.2609693907    -0.4994410843     1.1665979650
Bq         2.5177580340    -0.3571644940     0.2106602240
Bq         2.3893637123    -0.4283027892     0.6886290945
Bq         2.3599937975    -0.3435477542     0.7979634081
Bq         2.4113515261    -0.3150924361     0.6067758600
Bq         2.3343149332    -0.3577754132     0.8935571822
Bq         2.4370303905    -0.3008647771     0.5111820859
Bq         2.3086360688    -0.3720030722     0.9891509563
Bq         2.4627092548    -0.2866371181     0.4155883118
Bq         2.2829572045    -0.3862307313     1.0847447304
Bq         2.4883881191    -0.2724094590     0.3199945377
Bq         2.2572783402    -0.4004583903     1.1803385045
Bq         2.5140669834    -0.2581818000     0.2244007636
Bq         2.3856726618    -0.3293200951     0.7023696341
Bq         2.3563027470    -0.2445650601     0.8117039477
Bq         2.4076604756    -0.2161097421     0.6205163995
Bq         2.3306238826    -0.2587927192     0.9072977218
Bq         2.4333393399    -0.2018820830     0.5249226254
Bq         2.3049450183    -0.2730203782     1.0028914959
Bq         2.4590182042    -0.1876544240     0.4293288513
Bq         2.2792661540    -0.2872480372     1.0984852700
Bq         2.4846970686    -0.1734267650     0.3337350772
Bq         2.2535872897    -0.3014756962     1.1940790441
Bq         2.5103759329    -0.1591991060     0.2381413031
Bq         2.3819816113    -0.2303374011     0.7161101736
Bq         2.3526116964    -0.1455823661     0.8254444873
Bq         2.4039694251    -0.1171270480     0.6342569391
Bq         2.3269328321    -0.1598100251     0.9210382614
Bq         2.4296482894    -0.1028993890     0.5386631650
Bq         2.3012539678    -0.1740376842     1.0166320355
Bq         2.4553271537    -0.0886717300     0.4430693909
Bq         2.2755751035    -0.1882653432     1.1122258095
Bq         2.4810060180    -0.0744440710     0.3474756168
Bq         2.2498962391    -0.2024930022     1.2078195836
Bq         2.5066848824    -0.0602164119     0.2518818427
Bq         2.3782905607    -0.1313547071     0.7298507132
Bq         2.3489206459    -0.0465996721     0.8391850268
Bq         2.4002783745    -0.0181443540     0.6479974786
Bq         2.3232417816    -0.0608273311     0.9347788009
Bq         2.4259572389    -0.0039166950     0.5524037045
Bq         2.2975629172    -0.0750549901     1.0303725750
Bq         2.4516361032     0.0103109641     0.4568099304
Bq         2.2718840529    -0.0892826491     1.1259663491
Bq         2.4773149675     0.0245386231     0.3612161563
Bq         2.2462051886    -0.1035103082     1.2215601232
Bq         2.5029938318     0.0387662821     0.2656223823
Bq         2.3745995102    -0.0323720130     0.7435912527
Bq         2.3452295953     0.0523830220     0.8529255664
Bq         2.3965873240     0.0808383400     0.6617380182
Bq         2.3195507310     0.0381553629     0.9485193405
Bq         2.4222661883     0.0950659991     0.5661442441
Bq         2.2938718667     0.0239277039     1.0441131146
Bq         2.4479450526     0.1092936581     0.4705504700
Bq         2.2681930024     0.0097000449     1.1397068887
Bq         2.4736239170     0.1235213171     0.3749566959
Bq         2.2425141381    -0.0045276141     1.2353006628
Bq         2.4993027813     0.1377489761     0.2793629218
Bq         2.3709084597     0.0666106810     0.7573317923
Bq         2.3415385448     0.1513657160     0.8666661059
Bq         2.3928962735     0.1798210341     0.6754785578
Bq         2.3158596805     0.1371380570     0.9622598800
Bq         2.4185751378     0.1940486931     0.5798847837
Bq         2.2901808162     0.1229103980     1.0578536541
Bq         2.4442540021     0.2082763521     0.4842910096
Bq         2.2645019518     0.1086827389     1.1534474282
Bq         2.4699328664     0.2225040112     0.3886972355
Bq         2.2388230875     0.0944550799     1.2490412023
Bq         2.4956117307     0.2367316702     0.2931034614
Bq         2.3672174091     0.1655933750     0.7710723318
Bq         2.3378474943     0.2503484100     0.8804066455
Bq         2.3892052229     0.2788037281     0.6892190973
Bq         2.3121686300     0.2361207510     0.9760004196
Bq         2.4148840872     0.2930313871     0.5936253232
Bq         2.2864897656     0.2218930920     1.0715941937
Bq         2.4405629516     0.3072590462     0.4980315491
Bq         2.2608109013     0.2076654330     1.1671879678
Bq         2.4662418159     0.3214867052     0.4024377750
Bq         2.2351320370     0.1934377739     1.2627817419
Bq         2.4919206802     0.3357143642     0.3068440009
Bq         2.3635263586     0.2645760691     0.7848128714
Bq         2.3341564437     0.3493311041     0.8941471851
Bq         2.3855141724     0.3777864221     0.7029596369
Bq         2.3084775794     0.3351034451     0.9897409592
Bq         2.4111930367     0.3920140812     0.6073658628
Bq         2.2827987151     0.3208757860     1.0853347332
Bq         2.4368719010     0.4062417402     0.5117720887
Bq         2.2571198508     0.3066481270     1.1809285073
Bq         2.4625507654     0.4204693992     0.4161783146
Bq         2.2314409865     0.2924204680     1.2765222814
Bq         2.4882296297     0.4346970583     0.3205845405
Bq         2.3598353081     0.3635587631     0.7985534110
Bq         2.3304653932     0.4483137981     0.9078877246
Bq         2.3818231219     0.4767691162     0.7167001764
Bq         2.3047865289     0.4340861391     1.0034814987
Bq         2.4075019862     0.4909967752     0.6211064023
Bq         2.2791076646     0.4198584801     1.0990752728
Bq         2.4331808505     0.5052244342     0.5255126282
Bq         2.2534288002     0.4056308210     1.1946690469
Bq         2.4588597148     0.5194520933     0.4299188541
Bq         2.2277499359     0.3914031620     1.2902628210
Bq         2.4845385791     0.5336797523     0.3343250800
Bq         2.3561442575     0.4625414571     0.8122939505
Bq         2.3267743427     0.5472964922     0.9216282642
Bq         2.3781320713     0.5757518102     0.7304407160
Bq         2.3010954784     0.5330688331     1.0172220383
Bq         2.4038109356     0.5899794692     0.6348469419
Bq         2.2754166140     0.5188411741     1.1128158124
Bq         2.4294898000     0.6042071283     0.5392531678
Bq         2.2497377497     0.5046135151     1.2084095865
Bq         2.4551686643     0.6184347873     0.4436593937
Bq         2.2240588854     0.4903858560     1.3040033606
Bq         2.4808475286     0.6326624463     0.3480656196
Bq         2.3524532070     0.5615241512     0.8260344901
Bq         2.3230832921     0.6462791862     0.9353688037
Bq         2.3744410208     0.6747345042     0.7441812555
Bq         2.2974044278     0.6320515272     1.0309625778
Bq         2.4001198851     0.6889621633     0.6485874815
Bq         2.2717255635     0.6178238681     1.1265563519
Bq         2.4257987494     0.7031898223     0.5529937074
Bq         2.2460466992     0.6035962091     1.2221501260
Bq         2.4514776138     0.7174174813     0.4573999333
Bq         2.2203678348     0.5893685501     1.3177439001
Bq         2.4771564781     0.7316451404     0.3618061592
Bq         2.3487621565     0.6605068452     0.8397750296
Bq         2.3193922416     0.7452618802     0.9491093433
Bq         2.3707499702     0.7737171983     0.7579217951
Bq         2.2937133773     0.7310342212     1.0447031174
Bq         2.3964288346     0.7879448573     0.6623280210
Bq         2.2680345130     0.7168065622     1.1402968915
Bq         2.4221076989     0.8021725163     0.5667342469
Bq         2.2423556486     0.7025789031     1.2358906656
Bq         2.4477865632     0.8164001754     0.4711404728
Bq         2.2166767843     0.6883512441     1.3314844397
Bq         2.4734654275     0.8306278344     0.3755466987
Bq         2.3450711059     0.7594895393     0.8535155692
Bq         2.3157011911     0.8442445743     0.9628498829
Bq         2.3670589197     0.8726998923     0.7716623347
Bq         2.2900223267     0.8300169152     1.0584436569
Bq         2.3927377840     0.8869275513     0.6760685606
Bq         2.2643434624     0.8157892562     1.1540374310
Bq         2.4184166484     0.9011552104     0.5804747865
Bq         2.2386645981     0.8015615972     1.2496312051
Bq         2.4440955127     0.9153828694     0.4848810124
Bq         2.2129857338     0.7873339381     1.3452249792
Bq         2.4697743770     0.9296105284     0.3892872383
Bq         2.3413800554     0.8584722333     0.8672561088
Bq         2.3120101405     0.9432272683     0.9765904224
Bq         2.3633678692     0.9716825864     0.7854028742
Bq         2.2863312762     0.9289996093     1.0721841965
Bq         2.3890467335     0.9859102454     0.6898091001
Bq         2.2606524119     0.9147719502     1.1677779706
Bq         2.4147255978     1.0001379044     0.5942153260
Bq         2.2349735476     0.9005442912     1.2633717447
Bq         2.4404044621     1.0143655634     0.4986215519
Bq         2.2092946832     0.8863166322     1.3589655188
Bq         2.4660833265     1.0285932225     0.4030277778
Bq         2.3376890049     0.9574549273     0.8809966483
Bq         2.3083190900     1.0422099623     0.9903309620
Bq         2.3596768186     1.0706652804     0.7991434138
Bq         2.2826402257     1.0279823033     1.0859247361
Bq         2.3853556830     1.0848929394     0.7035496397
Bq         2.2569613614     1.0137546443     1.1815185102
Bq         2.4110345473     1.0991205984     0.6079558656
Bq         2.2312824970     0.9995269852     1.2771122843
Bq         2.4367134116     1.1133482575     0.5123620915
Bq         2.2056036327     0.9852993262     1.3727060584
Bq         2.4623922759     1.1275759165     0.4167683174
Bq         2.3339979543     1.0564376214     0.8947371879
Bq         2.3046280395     1.1411926564     1.0040715015
Bq         2.3559857681     1.1696479744     0.8128839533
Bq         2.2789491751     1.1269649973     1.0996652756
Bq         2.3816646324     1.1838756335     0.7172901792
Bq         2.2532703108     1.1127373383     1.1952590497
Bq         2.4073434968     1.1981032925     0.6216964052
Bq         2.2275914465     1.0985096793     1.2908528238
Bq         2.4330223611     1.2123309515     0.5261026311
Bq         2.2019125822     1.0842820203     1.3864465979
Bq         2.4587012254     1.2265586105     0.4305088570
Bq         2.3303069038     1.1554203154     0.9084777274
Bq         2.3009369889     1.2401753504     1.0178120411

1
2
3
4
5
6
7
8
9
10
11
12
13
14
15
16
17
18
19
20
21
22
23
24
25
26
27
28
29
30
31
32
33
34
35
36
37
38
39
40
41
42
43
44
45
46
47
48
49
50
51
52
53
54
55
56
57
58
59
60
61
62
63
64
65
66
67
68
69
70
71
72
73
74
75
76
77
78
79
80
81
82
83
84
85
86
87
88
89
90
91
92
93
94
95
96
97
98
99
100
101
102
103
104
105
106
107
108
109
110
111
112
113
114
115
116
117
118
119
120
121
122
123
124
125
126
127
128
129
130
131
132
133
134
135
136
137
138
139
140
141
142
143
144
145
146
147
148
149
150
151
152
153
154
155
156
157
158
159
160
161
162
163
164
165
166
167
168
169
170
171
172
173
174
175
176
177
178
179
180
181
182
183
184
185
186
187
188
189
190
191
192
193
194
195
196
197
198
199
200
201
202
203
204
205
206
207
208
209
210
211
212
213
214
215
216
217
218
219
220
221
222
223
224
225
226
227
228
229
230
231
232
233
234
235
236

