%nproc=8
%mem=1000MB
# rb3lyp/6-311+g** NMR geom=connectivity

Title

0 1
C    -4.0500558   -0.5771862    0.8136712
H    -5.0263804   -1.0082727    1.0024760
C    -3.9381552    0.6617804    0.2400876
H    -4.8252424    1.2338890   -0.0111295
C    -2.6768410    1.2433246    0.0057578
C    -1.4974121    0.5051527    0.2848253
C    -1.6508332   -0.7338728    0.9404026
H    -0.7713646   -1.2730967    1.2633753
C    -2.8898548   -1.2624035    1.1994307
H    -2.9683706   -2.2124563    1.7152676
C    -2.5773185    2.5963696   -0.4192930
H    -3.4870728    3.1412239   -0.6474055
C    -1.3741895    3.2147896   -0.4364030
H    -1.2997315    4.2742019   -0.6578144
C    -0.1719488    2.4994090   -0.1734588
C    -0.2043917    1.1018437    0.0192689
C     1.0513491    3.2042560   -0.0676222
H     1.0427344    4.2819499   -0.1896997
C     2.1942091    2.5487446    0.2579577
H     3.1168527    3.0912848    0.4334727
C     2.2216473    1.1336562    0.2934990
C     1.0486931    0.3945528    0.0302412
C     3.4483363    0.4614633    0.5573939
H     4.3095794    1.0606054    0.8334846
C     3.5427346   -0.8855926    0.4749463
H     4.4731467   -1.3939704    0.7038822
C     2.4490052   -1.6474447   -0.0196319
C     1.2150704   -1.0057258   -0.3013573
C     0.2531113   -1.7434440   -1.0216591
H    -0.6541356   -1.2535051   -1.3462847
C     0.4494193   -3.0628597   -1.3413779
H    -0.3083162   -3.5944309   -1.9054060
C     1.6251726   -3.7207967   -0.9552541
H     1.7670048   -4.7687404   -1.1927019
C     2.6109872   -3.0144177   -0.3183050
H     3.5525612   -3.4902813   -0.0646367
Bq         0.3294443898    -0.4994410843     0.6477423292
Bq         0.5862330330    -0.3571644940    -0.3081954118
Bq         0.4578387114    -0.4283027892     0.1697734587
Bq         0.4284687966    -0.3435477542     0.2791077724
Bq         0.4798265252    -0.3150924361     0.0879202242
Bq         0.4027899322    -0.3577754132     0.3747015465
Bq         0.5055053895    -0.3008647771    -0.0076735499
Bq         0.3771110679    -0.3720030722     0.4702953206
Bq         0.5311842539    -0.2866371181    -0.1032673240
Bq         0.3514322036    -0.3862307313     0.5658890947
Bq         0.5568631182    -0.2724094590    -0.1988610981
Bq         0.3257533393    -0.4004583903     0.6614828687
Bq         0.5825419825    -0.2581818000    -0.2944548722
Bq         0.4541476609    -0.3293200951     0.1835139983
Bq         0.4247777460    -0.2445650601     0.2928483119
Bq         0.4761354747    -0.2161097421     0.1016607637
Bq         0.3990988817    -0.2587927192     0.3884420860
Bq         0.5018143390    -0.2018820830     0.0060669896
Bq         0.3734200174    -0.2730203782     0.4840358601
Bq         0.5274932033    -0.1876544240    -0.0895267845
Bq         0.3477411531    -0.2872480372     0.5796296342
Bq         0.5531720676    -0.1734267650    -0.1851205585
Bq         0.3220622887    -0.3014756962     0.6752234083
Bq         0.5788509320    -0.1591991060    -0.2807143326
Bq         0.4504566103    -0.2303374011     0.1972545378
Bq         0.4210866955    -0.1455823661     0.3065888515
Bq         0.4724444241    -0.1171270480     0.1154013033
Bq         0.3954078312    -0.1598100251     0.4021826256
Bq         0.4981232885    -0.1028993890     0.0198075292
Bq         0.3697289668    -0.1740376842     0.4977763997
Bq         0.5238021528    -0.0886717300    -0.0757862449
Bq         0.3440501025    -0.1882653432     0.5933701738
Bq         0.5494810171    -0.0744440710    -0.1713800190
Bq         0.3183712382    -0.2024930022     0.6889639479
Bq         0.5751598814    -0.0602164119    -0.2669737931
Bq         0.4467655598    -0.1313547071     0.2109950774
Bq         0.4173956450    -0.0465996721     0.3203293910
Bq         0.4687533736    -0.0181443540     0.1291418429
Bq         0.3917167806    -0.0608273311     0.4159231651
Bq         0.4944322379    -0.0039166950     0.0335480688
Bq         0.3660379163    -0.0750549901     0.5115169392
Bq         0.5201111022     0.0103109641    -0.0620457053
Bq         0.3403590520    -0.0892826491     0.6071107133
Bq         0.5457899666     0.0245386231    -0.1576394794
Bq         0.3146801877    -0.1035103082     0.7027044874
Bq         0.5714688309     0.0387662821    -0.2532332535
Bq         0.4430745093    -0.0323720130     0.2247356169
Bq         0.4137045944     0.0523830220     0.3340699306
Bq         0.4650623231     0.0808383400     0.1428823824
Bq         0.3880257301     0.0381553629     0.4296637047
Bq         0.4907411874     0.0950659991     0.0472886083
Bq         0.3623468658     0.0239277039     0.5252574788
Bq         0.5164200517     0.1092936581    -0.0483051658
Bq         0.3366680015     0.0097000449     0.6208512529
Bq         0.5420989160     0.1235213171    -0.1438989399
Bq         0.3109891371    -0.0045276141     0.7164450270
Bq         0.5677777804     0.1377489761    -0.2394927140
Bq         0.4393834587     0.0666106810     0.2384761565
Bq         0.4100135439     0.1513657160     0.3478104702
Bq         0.4613712725     0.1798210341     0.1566229220
Bq         0.3843346796     0.1371380570     0.4434042443
Bq         0.4870501369     0.1940486931     0.0610291479
Bq         0.3586558152     0.1229103980     0.5389980184
Bq         0.5127290012     0.2082763521    -0.0345646262
Bq         0.3329769509     0.1086827389     0.6345917924
Bq         0.5384078655     0.2225040112    -0.1301584003
Bq         0.3072980866     0.0944550799     0.7301855665
Bq         0.5640867298     0.2367316702    -0.2257521744
Bq         0.4356924082     0.1655933750     0.2522166961
Bq         0.4063224933     0.2503484100     0.3615510097
Bq         0.4576802220     0.2788037281     0.1703634615
Bq         0.3806436290     0.2361207510     0.4571447838
Bq         0.4833590863     0.2930313871     0.0747696874
Bq         0.3549647647     0.2218930920     0.5527385579
Bq         0.5090379506     0.3072590462    -0.0208240867
Bq         0.3292859004     0.2076654330     0.6483323320
Bq         0.5347168150     0.3214867052    -0.1164178608
Bq         0.3036070361     0.1934377739     0.7439261061
Bq         0.5603956793     0.3357143642    -0.2120116348
Bq         0.4320013577     0.2645760691     0.2659572356
Bq         0.4026314428     0.3493311041     0.3752915493
Bq         0.4539891715     0.3777864221     0.1841040011
Bq         0.3769525785     0.3351034451     0.4708853234
Bq         0.4796680358     0.3920140812     0.0885102270
Bq         0.3512737142     0.3208757860     0.5664790975
Bq         0.5053469001     0.4062417402    -0.0070835471
Bq         0.3255948498     0.3066481270     0.6620728716
Bq         0.5310257644     0.4204693992    -0.1026773212
Bq         0.2999159855     0.2924204680     0.7576666457
Bq         0.5567046287     0.4346970583    -0.1982710953
Bq         0.4283103071     0.3635587631     0.2796977752
Bq         0.3989403923     0.4483137981     0.3890320888
Bq         0.4502981209     0.4767691162     0.1978445406
Bq         0.3732615280     0.4340861391     0.4846258629
Bq         0.4759769852     0.4909967752     0.1022507666
Bq         0.3475826636     0.4198584801     0.5802196370
Bq         0.5016558496     0.5052244342     0.0066569925
Bq         0.3219037993     0.4056308210     0.6758134111
Bq         0.5273347139     0.5194520933    -0.0889367816
Bq         0.2962249350     0.3914031620     0.7714071852
Bq         0.5530135782     0.5336797523    -0.1845305557
Bq         0.4246192566     0.4625414571     0.2934383147
Bq         0.3952493417     0.5472964922     0.4027726284
Bq         0.4466070704     0.5757518102     0.2115850802
Bq         0.3695704774     0.5330688331     0.4983664025
Bq         0.4722859347     0.5899794692     0.1159913061
Bq         0.3438916131     0.5188411741     0.5939601766
Bq         0.4979647990     0.6042071283     0.0203975320
Bq         0.3182127488     0.5046135151     0.6895539507
Bq         0.5236436634     0.6184347873    -0.0751962421
Bq         0.2925338845     0.4903858560     0.7851477248
Bq         0.5493225277     0.6326624463    -0.1707900162
Bq         0.4209282061     0.5615241512     0.3071788543
Bq         0.3915582912     0.6462791862     0.4165131680
Bq         0.4429160199     0.6747345042     0.2253256198
Bq         0.3658794269     0.6320515272     0.5121069421
Bq         0.4685948842     0.6889621633     0.1297318457
Bq         0.3402005626     0.6178238681     0.6077007161
Bq         0.4942737485     0.7031898223     0.0341380716
Bq         0.3145216982     0.6035962091     0.7032944902
Bq         0.5199526128     0.7174174813    -0.0614557025
Bq         0.2888428339     0.5893685501     0.7988882643
Bq         0.5456314771     0.7316451404    -0.1570494766
Bq         0.4172371555     0.6605068452     0.3209193939
Bq         0.3878672407     0.7452618802     0.4302537075
Bq         0.4392249693     0.7737171983     0.2390661593
Bq         0.3621883763     0.7310342212     0.5258474816
Bq         0.4649038336     0.7879448573     0.1434723852
Bq         0.3365095120     0.7168065622     0.6214412557
Bq         0.4905826980     0.8021725163     0.0478786111
Bq         0.3108306477     0.7025789031     0.7170350298
Bq         0.5162615623     0.8164001754    -0.0477151630
Bq         0.2851517834     0.6883512441     0.8126288039
Bq         0.5419404266     0.8306278344    -0.1433089371
Bq         0.4135461050     0.7594895393     0.3346599334
Bq         0.3841761901     0.8442445743     0.4439942471
Bq         0.4355339188     0.8726998923     0.2528066989
Bq         0.3584973258     0.8300169152     0.5395880212
Bq         0.4612127831     0.8869275513     0.1572129248
Bq         0.3328184615     0.8157892562     0.6351817953
Bq         0.4868916474     0.9011552104     0.0616191507
Bq         0.3071395972     0.8015615972     0.7307755694
Bq         0.5125705117     0.9153828694    -0.0339746234
Bq         0.2814607328     0.7873339381     0.8263693435
Bq         0.5382493761     0.9296105284    -0.1295683975
Bq         0.4098550545     0.8584722333     0.3484004730
Bq         0.3804851396     0.9432272683     0.4577347866
Bq         0.4318428682     0.9716825864     0.2665472384
Bq         0.3548062753     0.9289996093     0.5533285607
Bq         0.4575217326     0.9859102454     0.1709534643
Bq         0.3291274110     0.9147719502     0.6489223348
Bq         0.4832005969     1.0001379044     0.0753596903
Bq         0.3034485466     0.9005442912     0.7445161089
Bq         0.5088794612     1.0143655634    -0.0202340838
Bq         0.2777696823     0.8863166322     0.8401098830
Bq         0.5345583255     1.0285932225    -0.1158278579
Bq         0.4061640039     0.9574549273     0.3621410125
Bq         0.3767940891     1.0422099623     0.4714753262
Bq         0.4281518177     1.0706652804     0.2802877780
Bq         0.3511152247     1.0279823033     0.5670691003
Bq         0.4538306820     1.0848929394     0.1846940039
Bq         0.3254363604     1.0137546443     0.6626628744
Bq         0.4795095464     1.0991205984     0.0891002298
Bq         0.2997574961     0.9995269852     0.7582566485
Bq         0.5051884107     1.1133482575    -0.0064935443
Bq         0.2740786318     0.9852993262     0.8538504226
Bq         0.5308672750     1.1275759165    -0.1020873184
Bq         0.4024729534     1.0564376214     0.3758815521
Bq         0.3731030385     1.1411926564     0.4852158658
Bq         0.4244607672     1.1696479744     0.2940283176
Bq         0.3474241742     1.1269649973     0.5808096398
Bq         0.4501396315     1.1838756335     0.1984345435
Bq         0.3217453099     1.1127373383     0.6764034139
Bq         0.4758184958     1.1981032925     0.1028407694
Bq         0.2960664456     1.0985096793     0.7719971880
Bq         0.5014973601     1.2123309515     0.0072469953
Bq         0.2703875812     1.0842820203     0.8675909621
Bq         0.5271762245     1.2265586105    -0.0883467788
Bq         0.3987819029     1.1554203154     0.3896220917
Bq         0.3694119880     1.2401753504     0.4989564053
Bq         0.4207697166     1.2686306685     0.3077688571
Bq         0.3437331237     1.2259476914     0.5945501794
Bq         0.4464485810     1.2828583275     0.2121750830
Bq         0.3180542593     1.2117200323     0.6901439535
Bq         0.4721274453     1.2970859865     0.1165813089
Bq         0.2923753950     1.1974923733     0.7857377276
Bq         0.4978063096     1.3113136455     0.0209875348
Bq         0.2666965307     1.1832647143     0.8813315017
Bq         0.5234851739     1.3255413046    -0.0746062393
Bq         0.3950908523     1.2544030094     0.4033626312
Bq         0.3657209375     1.3391580444     0.5126969449
Bq         0.4170786661     1.3676133625     0.3215093967
Bq         0.3400420731     1.3249303854     0.6082907190
Bq         0.4427575304     1.3818410215     0.2259156226
Bq         0.3143632088     1.3107027264     0.7038844931
Bq         0.4684363947     1.3960686806     0.1303218485
Bq         0.2886843445     1.2964750674     0.7994782672
Bq         0.4941152591     1.4102963396     0.0347280744
Bq         0.2630054802     1.2822474083     0.8950720412
Bq         0.5197941234     1.4245239986    -0.0608656997

1
2
3
4
5
6
7
8
9
10
11
12
13
14
15
16
17
18
19
20
21
22
23
24
25
26
27
28
29
30
31
32
33
34
35
36
37
38
39
40
41
42
43
44
45
46
47
48
49
50
51
52
53
54
55
56
57
58
59
60
61
62
63
64
65
66
67
68
69
70
71
72
73
74
75
76
77
78
79
80
81
82
83
84
85
86
87
88
89
90
91
92
93
94
95
96
97
98
99
100
101
102
103
104
105
106
107
108
109
110
111
112
113
114
115
116
117
118
119
120
121
122
123
124
125
126
127
128
129
130
131
132
133
134
135
136
137
138
139
140
141
142
143
144
145
146
147
148
149
150
151
152
153
154
155
156
157
158
159
160
161
162
163
164
165
166
167
168
169
170
171
172
173
174
175
176
177
178
179
180
181
182
183
184
185
186
187
188
189
190
191
192
193
194
195
196
197
198
199
200
201
202
203
204
205
206
207
208
209
210
211
212
213
214
215
216
217
218
219
220
221
222
223
224
225
226
227
228
229
230
231
232
233
234
235
236

