%nproc=8
%mem=1000MB
# rb3lyp/6-311+g** NMR geom=connectivity

Title

0 1
C    -4.0500558   -0.5771862    0.8136712
H    -5.0263804   -1.0082727    1.0024760
C    -3.9381552    0.6617804    0.2400876
H    -4.8252424    1.2338890   -0.0111295
C    -2.6768410    1.2433246    0.0057578
C    -1.4974121    0.5051527    0.2848253
C    -1.6508332   -0.7338728    0.9404026
H    -0.7713646   -1.2730967    1.2633753
C    -2.8898548   -1.2624035    1.1994307
H    -2.9683706   -2.2124563    1.7152676
C    -2.5773185    2.5963696   -0.4192930
H    -3.4870728    3.1412239   -0.6474055
C    -1.3741895    3.2147896   -0.4364030
H    -1.2997315    4.2742019   -0.6578144
C    -0.1719488    2.4994090   -0.1734588
C    -0.2043917    1.1018437    0.0192689
C     1.0513491    3.2042560   -0.0676222
H     1.0427344    4.2819499   -0.1896997
C     2.1942091    2.5487446    0.2579577
H     3.1168527    3.0912848    0.4334727
C     2.2216473    1.1336562    0.2934990
C     1.0486931    0.3945528    0.0302412
C     3.4483363    0.4614633    0.5573939
H     4.3095794    1.0606054    0.8334846
C     3.5427346   -0.8855926    0.4749463
H     4.4731467   -1.3939704    0.7038822
C     2.4490052   -1.6474447   -0.0196319
C     1.2150704   -1.0057258   -0.3013573
C     0.2531113   -1.7434440   -1.0216591
H    -0.6541356   -1.2535051   -1.3462847
C     0.4494193   -3.0628597   -1.3413779
H    -0.3083162   -3.5944309   -1.9054060
C     1.6251726   -3.7207967   -0.9552541
H     1.7670048   -4.7687404   -1.1927019
C     2.6109872   -3.0144177   -0.3183050
H     3.5525612   -3.4902813   -0.0646367
Bq         3.0824882281    -4.3303263604     0.0631552922
Bq         3.0316199909    -4.2605490288     0.1751532673
Bq         3.1113435185    -4.2073177266    -0.0003761821
Bq         2.9917582272    -4.2871646799     0.2629179921
Bq         3.1512052823    -4.1807020755    -0.0881409068
Bq         2.9518964634    -4.3137803310     0.3506827168
Bq         3.1910670461    -4.1540864244    -0.1759056315
Bq         2.9120346996    -4.3403959821     0.4384474415
Bq         3.2309288099    -4.1274707733    -0.2636703562
Bq         2.8721729358    -4.3670116332     0.5262121662
Bq         3.2707905737    -4.1008551222    -0.3514350809
Bq         3.0714817547    -4.2339333777     0.0873885426
Bq         3.0206135176    -4.1641560461     0.1993865178
Bq         3.1003370452    -4.1109247439     0.0238570684
Bq         2.9807517538    -4.1907716972     0.2871512425
Bq         3.1401988089    -4.0843090928    -0.0639076563
Bq         2.9408899900    -4.2173873483     0.3749159672
Bq         3.1800605727    -4.0576934417    -0.1516723811
Bq         2.9010282262    -4.2440029994     0.4626806919
Bq         3.2199223365    -4.0310777905    -0.2394371058
Bq         2.8611664624    -4.2706186505     0.5504454167
Bq         3.2597841003    -4.0044621394    -0.3272018305
Bq         3.0604752814    -4.1375403950     0.1116217931
Bq         3.0096070442    -4.0677630634     0.2236197683
Bq         3.0893305718    -4.0145317612     0.0480903188
Bq         2.9697452804    -4.0943787145     0.3113844930
Bq         3.1291923356    -3.9879161100    -0.0396744059
Bq         2.9298835166    -4.1209943656     0.3991492177
Bq         3.1690540994    -3.9613004589    -0.1274391306
Bq         2.8900217528    -4.1476100167     0.4869139424
Bq         3.2089158631    -3.9346848078    -0.2152038553
Bq         2.8501599891    -4.1742256678     0.5746786671
Bq         3.2487776269    -3.9080691567    -0.3029685800
Bq         3.0494688080    -4.0411474123     0.1358550435
Bq         2.9986005708    -3.9713700807     0.2478530187
Bq         3.0783240984    -3.9181387784     0.0723235693
Bq         2.9587388070    -3.9979857318     0.3356177434
Bq         3.1181858622    -3.8915231273    -0.0154411554
Bq         2.9188770433    -4.0246013829     0.4233824681
Bq         3.1580476260    -3.8649074762    -0.1032058801
Bq         2.8790152795    -4.0512170340     0.5111471929
Bq         3.1979093898    -3.8382918251    -0.1909706048
Bq         2.8391535157    -4.0778326851     0.5989119176
Bq         3.2377711536    -3.8116761740    -0.2787353296
Bq         3.0384623346    -3.9447544296     0.1600882940
Bq         2.9875940975    -3.8749770979     0.2720862692
Bq         3.0673176250    -3.8217457957     0.0965568197
Bq         2.9477323337    -3.9015927491     0.3598509939
Bq         3.1071793888    -3.7951301446     0.0087920950
Bq         2.9078705699    -3.9282084002     0.4476157186
Bq         3.1470411526    -3.7685144935    -0.0789726297
Bq         2.8680088061    -3.9548240513     0.5353804433
Bq         3.1869029164    -3.7418988424    -0.1667373544
Bq         2.8281470423    -3.9814397024     0.6231451680
Bq         3.2267646802    -3.7152831913    -0.2545020791
Bq         3.0274558612    -3.8483614468     0.1843215445
Bq         2.9765876241    -3.7785841152     0.2963195196
Bq         3.0563111517    -3.7253528130     0.1207900702
Bq         2.9367258603    -3.8051997663     0.3840842443
Bq         3.0961729155    -3.6987371619     0.0330253455
Bq         2.8968640965    -3.8318154174     0.4718489691
Bq         3.1360346792    -3.6721215108    -0.0547393792
Bq         2.8570023327    -3.8584310686     0.5596136938
Bq         3.1758964430    -3.6455058597    -0.1425041039
Bq         2.8171405689    -3.8850467197     0.6473784185
Bq         3.2157582068    -3.6188902086    -0.2302688286
Bq         3.0164493879    -3.7519684641     0.2085547949
Bq         2.9655811507    -3.6821911325     0.3205527701
Bq         3.0453046783    -3.6289598303     0.1450233207
Bq         2.9257193869    -3.7088067836     0.4083174948
Bq         3.0851664421    -3.6023441792     0.0572585960
Bq         2.8858576231    -3.7354224347     0.4960822195
Bq         3.1250282059    -3.5757285281    -0.0305061288
Bq         2.8459958594    -3.7620380858     0.5838469442
Bq         3.1648899697    -3.5491128770    -0.1182708535
Bq         2.8061340956    -3.7886537369     0.6716116689
Bq         3.2047517334    -3.5224972259    -0.2060355782
Bq         3.0054429145    -3.6555754814     0.2327880454
Bq         2.9545746773    -3.5857981498     0.3447860205
Bq         3.0342982049    -3.5325668476     0.1692565711
Bq         2.9147129136    -3.6124138009     0.4325507453
Bq         3.0741599687    -3.5059511965     0.0814918464
Bq         2.8748511498    -3.6390294520     0.5203154700
Bq         3.1140217325    -3.4793355454    -0.0062728783
Bq         2.8349893860    -3.6656451031     0.6080801947
Bq         3.1538834963    -3.4527198943    -0.0940376030
Bq         2.7951276222    -3.6922607542     0.6958449194
Bq         3.1937452601    -3.4261042432    -0.1818023277
Bq         2.9944364411    -3.5591824987     0.2570212958
Bq         2.9435682040    -3.4894051671     0.3690192710
Bq         3.0232917315    -3.4361738649     0.1934898216
Bq         2.9037064402    -3.5160208182     0.4567839957
Bq         3.0631534953    -3.4095582138     0.1057250969
Bq         2.8638446764    -3.5426364693     0.5445487204
Bq         3.1030152591    -3.3829425627     0.0179603722
Bq         2.8239829126    -3.5692521204     0.6323134451
Bq         3.1428770229    -3.3563269116    -0.0698043526
Bq         2.7841211488    -3.5958677715     0.7200781699
Bq         3.1827387867    -3.3297112605    -0.1575690773
Bq         2.9834299678    -3.4627895160     0.2812545463
Bq         2.9325617306    -3.3930121844     0.3932525215
Bq         3.0122852582    -3.3397808822     0.2177230720
Bq         2.8926999668    -3.4196278355     0.4810172462
Bq         3.0521470220    -3.3131652311     0.1299583473
Bq         2.8528382030    -3.4462434866     0.5687819709
Bq         3.0920087858    -3.2865495800     0.0421936226
Bq         2.8129764392    -3.4728591377     0.6565466956
Bq         3.1318705495    -3.2599339288    -0.0455711021
Bq         2.7731146755    -3.4994747888     0.7443114203
Bq         3.1717323133    -3.2333182777    -0.1333358268
Bq         2.9724234944    -3.3663965333     0.3054877968
Bq         2.9215552572    -3.2966192017     0.4174857719
Bq         3.0012787848    -3.2433878995     0.2419563225
Bq         2.8816934934    -3.3232348528     0.5052504966
Bq         3.0411405486    -3.2167722484     0.1541915978
Bq         2.8418317297    -3.3498505039     0.5930152213
Bq         3.0810023124    -3.1901565972     0.0664268731
Bq         2.8019699659    -3.3764661550     0.6807799461
Bq         3.1208640762    -3.1635409461    -0.0213378516
Bq         2.7621082021    -3.4030818061     0.7685446708
Bq         3.1607258400    -3.1369252950    -0.1091025764
Bq         2.9614170210    -3.2700035506     0.3297210472
Bq         2.9105487839    -3.2002262190     0.4417190224
Bq         2.9902723114    -3.1469949167     0.2661895730
Bq         2.8706870201    -3.2268418701     0.5294837471
Bq         3.0301340752    -3.1203792656     0.1784248482
Bq         2.8308252563    -3.2534575212     0.6172484718
Bq         3.0699958390    -3.0937636145     0.0906601235
Bq         2.7909634925    -3.2800731723     0.7050131965
Bq         3.1098576028    -3.0671479634     0.0028953988
Bq         2.7511017287    -3.3066888234     0.7927779212
Bq         3.1497193666    -3.0405323123    -0.0848693259
Bq         2.9504105476    -3.1736105679     0.3539542977
Bq         2.8995423105    -3.1038332362     0.4659522728
Bq         2.9792658381    -3.0506019340     0.2904228234
Bq         2.8596805467    -3.1304488874     0.5537169976
Bq         3.0191276018    -3.0239862829     0.2026580987
Bq         2.8198187829    -3.1570645385     0.6414817223
Bq         3.0589893656    -2.9973706318     0.1148933740
Bq         2.7799570191    -3.1836801896     0.7292464470
Bq         3.0988511294    -2.9707549807     0.0271286493
Bq         2.7400952553    -3.2102958407     0.8170111717
Bq         3.1387128932    -2.9441393296    -0.0606360754
Bq         2.9394040743    -3.0772175851     0.3781875481
Bq         2.8885358371    -3.0074402535     0.4901855233
Bq         2.9682593647    -2.9542089513     0.3146560739
Bq         2.8486740733    -3.0340559046     0.5779502480
Bq         3.0081211285    -2.9275933002     0.2268913492
Bq         2.8088123095    -3.0606715558     0.6657149727
Bq         3.0479828923    -2.9009776491     0.1391266244
Bq         2.7689505457    -3.0872872069     0.7534796974
Bq         3.0878446560    -2.8743619980     0.0513618997
Bq         2.7290887820    -3.1139028580     0.8412444221
Bq         3.1277064198    -2.8477463469    -0.0364028250
Bq         2.9283976009    -2.9808246024     0.4024207986
Bq         2.8775293637    -2.9110472708     0.5144187738
Bq         2.9572528913    -2.8578159686     0.3388893243
Bq         2.8376676000    -2.9376629219     0.6021834985
Bq         2.9971146551    -2.8312003175     0.2511245996
Bq         2.7978058362    -2.9642785730     0.6899482232
Bq         3.0369764189    -2.8045846664     0.1633598749
Bq         2.7579440724    -2.9908942241     0.7777129479
Bq         3.0768381827    -2.7779690153     0.0755951502
Bq         2.7180823086    -3.0175098753     0.8654776726
Bq         3.1166999465    -2.7513533642    -0.0121695745
Bq         2.9173911275    -2.8844316197     0.4266540490
Bq         2.8665228904    -2.8146542881     0.5386520242
Bq         2.9462464179    -2.7614229859     0.3631225748
Bq         2.8266611266    -2.8412699392     0.6264167489
Bq         2.9861081817    -2.7348073348     0.2753578501
Bq         2.7867993628    -2.8678855903     0.7141814736
Bq         3.0259699455    -2.7081916837     0.1875931254
Bq         2.7469375990    -2.8945012414     0.8019461984
Bq         3.0658317093    -2.6815760326     0.0998284006
Bq         2.7070758352    -2.9211168925     0.8897109231
Bq         3.1056934731    -2.6549603815     0.0120636759
Bq         2.9063846542    -2.7880386370     0.4508872995
Bq         2.8555164170    -2.7182613054     0.5628852747
Bq         2.9352399446    -2.6650300032     0.3873558252
Bq         2.8156546532    -2.7448769565     0.6506499994
Bq         2.9751017084    -2.6384143521     0.2995911005
Bq         2.7757928894    -2.7714926076     0.7384147241
Bq         3.0149634721    -2.6117987010     0.2118263758
Bq         2.7359311256    -2.7981082587     0.8261794488
Bq         3.0548252359    -2.5851830499     0.1240616511
Bq         2.6960693618    -2.8247239098     0.9139441735
Bq         3.0946869997    -2.5585673988     0.0362969264
Bq         2.8953781808    -2.6916456543     0.4751205500
Bq         2.8445099436    -2.6218683227     0.5871185251
Bq         2.9242334712    -2.5686370205     0.4115890757
Bq         2.8046481798    -2.6484839738     0.6748832498
Bq         2.9640952350    -2.5420213694     0.3238243510
Bq         2.7647864160    -2.6750996249     0.7626479746
Bq         3.0039569988    -2.5154057183     0.2360596263
Bq         2.7249246523    -2.7017152760     0.8504126993
Bq         3.0438187626    -2.4887900672     0.1482949016
Bq         2.6850628885    -2.7283309271     0.9381774240
Bq         3.0836805263    -2.4621744160     0.0605301769
Bq         2.8843717074    -2.5952526716     0.4993538004
Bq         2.8335034703    -2.5254753400     0.6113517756

1
2
3
4
5
6
7
8
9
10
11
12
13
14
15
16
17
18
19
20
21
22
23
24
25
26
27
28
29
30
31
32
33
34
35
36
37
38
39
40
41
42
43
44
45
46
47
48
49
50
51
52
53
54
55
56
57
58
59
60
61
62
63
64
65
66
67
68
69
70
71
72
73
74
75
76
77
78
79
80
81
82
83
84
85
86
87
88
89
90
91
92
93
94
95
96
97
98
99
100
101
102
103
104
105
106
107
108
109
110
111
112
113
114
115
116
117
118
119
120
121
122
123
124
125
126
127
128
129
130
131
132
133
134
135
136
137
138
139
140
141
142
143
144
145
146
147
148
149
150
151
152
153
154
155
156
157
158
159
160
161
162
163
164
165
166
167
168
169
170
171
172
173
174
175
176
177
178
179
180
181
182
183
184
185
186
187
188
189
190
191
192
193
194
195
196
197
198
199
200
201
202
203
204
205
206
207
208
209
210
211
212
213
214
215
216
217
218
219
220
221
222
223
224
225
226
227
228
229
230
231
232
233
234
235
236

