%nproc=8
%mem=1000MB
# rb3lyp/6-311+g** NMR geom=connectivity

Title

0 1
C    -4.0500558   -0.5771862    0.8136712
H    -5.0263804   -1.0082727    1.0024760
C    -3.9381552    0.6617804    0.2400876
H    -4.8252424    1.2338890   -0.0111295
C    -2.6768410    1.2433246    0.0057578
C    -1.4974121    0.5051527    0.2848253
C    -1.6508332   -0.7338728    0.9404026
H    -0.7713646   -1.2730967    1.2633753
C    -2.8898548   -1.2624035    1.1994307
H    -2.9683706   -2.2124563    1.7152676
C    -2.5773185    2.5963696   -0.4192930
H    -3.4870728    3.1412239   -0.6474055
C    -1.3741895    3.2147896   -0.4364030
H    -1.2997315    4.2742019   -0.6578144
C    -0.1719488    2.4994090   -0.1734588
C    -0.2043917    1.1018437    0.0192689
C     1.0513491    3.2042560   -0.0676222
H     1.0427344    4.2819499   -0.1896997
C     2.1942091    2.5487446    0.2579577
H     3.1168527    3.0912848    0.4334727
C     2.2216473    1.1336562    0.2934990
C     1.0486931    0.3945528    0.0302412
C     3.4483363    0.4614633    0.5573939
H     4.3095794    1.0606054    0.8334846
C     3.5427346   -0.8855926    0.4749463
H     4.4731467   -1.3939704    0.7038822
C     2.4490052   -1.6474447   -0.0196319
C     1.2150704   -1.0057258   -0.3013573
C     0.2531113   -1.7434440   -1.0216591
H    -0.6541356   -1.2535051   -1.3462847
C     0.4494193   -3.0628597   -1.3413779
H    -0.3083162   -3.5944309   -1.9054060
C     1.6251726   -3.7207967   -0.9552541
H     1.7670048   -4.7687404   -1.1927019
C     2.6109872   -3.0144177   -0.3183050
H     3.5525612   -3.4902813   -0.0646367
Bq        -4.7855646840    -0.7041292244     1.0107435330
Bq        -4.7887506441    -0.3127847713     1.8211998049
Bq        -4.7852106884    -0.7476119414     0.9206928361
Bq        -4.7869806663    -0.5301983563     1.3709463205
Bq        -4.7871637296    -0.3966642467     1.4175146363
Bq        -4.7864557384    -0.4836296807     1.2374132426
Bq        -4.7875177251    -0.3531815297     1.5075653332
Bq        -4.7861017428    -0.5271123977     1.1473625457
Bq        -4.7878717207    -0.3096988127     1.5976160301
Bq        -4.7857477473    -0.5705951147     1.0573118488
Bq        -4.7882257163    -0.2662160957     1.6876667270
Bq        -4.7853937517    -0.6140778317     0.9672611519
Bq        -4.7885797119    -0.2227333786     1.7777174239
Bq        -4.7850397561    -0.6575605487     0.8772104550
Bq        -4.7868097340    -0.4401469637     1.3274639395
Bq        -4.7869927973    -0.3066128540     1.3740322553
Bq        -4.7862848061    -0.3935782880     1.1939308615
Bq        -4.7873467929    -0.2631301370     1.4640829522
Bq        -4.7859308106    -0.4370610050     1.1038801647
Bq        -4.7877007884    -0.2196474200     1.5541336491
Bq        -4.7855768150    -0.4805437220     1.0138294678
Bq        -4.7880547840    -0.1761647030     1.6441843460
Bq        -4.7852228194    -0.5240264390     0.9237787709
Bq        -4.7884087796    -0.1326819860     1.7342350428
Bq        -4.7848688239    -0.5675091560     0.8337280740
Bq        -4.7866388017    -0.3500955710     1.2839815584
Bq        -4.7868218650    -0.2165614613     1.3305498743
Bq        -4.7861138739    -0.3035268953     1.1504484805
Bq        -4.7871758606    -0.1730787443     1.4206005712
Bq        -4.7857598783    -0.3470096123     1.0603977836
Bq        -4.7875298562    -0.1295960273     1.5106512680
Bq        -4.7854058827    -0.3904923293     0.9703470868
Bq        -4.7878838517    -0.0861133103     1.6007019649
Bq        -4.7850518872    -0.4339750463     0.8802963899
Bq        -4.7882378473    -0.0426305933     1.6907526618
Bq        -4.7846978916    -0.4774577634     0.7902456930
Bq        -4.7864678694    -0.2600441783     1.2404991774
Bq        -4.7866509327    -0.1265100687     1.2870674932
Bq        -4.7859429416    -0.2134755027     1.1069660995
Bq        -4.7870049283    -0.0830273517     1.3771181901
Bq        -4.7855889460    -0.2569582197     1.0169154026
Bq        -4.7873589239    -0.0395446346     1.4671688870
Bq        -4.7852349505    -0.3004409367     0.9268647057
Bq        -4.7877129195     0.0039380824     1.5572195839
Bq        -4.7848809549    -0.3439236537     0.8368140088
Bq        -4.7880669150     0.0474207994     1.6472702808
Bq        -4.7845269593    -0.3874063707     0.7467633120
Bq        -4.7862969372    -0.1699927857     1.1970167964
Bq        -4.7864800005    -0.0364586760     1.2435851122
Bq        -4.7857720093    -0.1234241100     1.0634837185
Bq        -4.7868339960     0.0070240410     1.3336358091
Bq        -4.7854180138    -0.1669068270     0.9734330216
Bq        -4.7871879916     0.0505067580     1.4236865060
Bq        -4.7850640182    -0.2103895440     0.8833823247
Bq        -4.7875419872     0.0939894750     1.5137372029
Bq        -4.7847100226    -0.2538722610     0.7933316278
Bq        -4.7878959828     0.1374721920     1.6037878997
Bq        -4.7843560270    -0.2973549780     0.7032809309
Bq        -4.7861260049    -0.0799413930     1.1535344153
Bq        -4.7863090682     0.0535927167     1.2001027312
Bq        -4.7856010771    -0.0333727173     1.0200013374
Bq        -4.7866630638     0.0970754337     1.2901534281
Bq        -4.7852470815    -0.0768554343     0.9299506405
Bq        -4.7870170593     0.1405581507     1.3802041249
Bq        -4.7848930859    -0.1203381513     0.8398999437
Bq        -4.7873710549     0.1840408677     1.4702548218
Bq        -4.7845390903    -0.1638208683     0.7498492468
Bq        -4.7877250505     0.2275235847     1.5603055187
Bq        -4.7841850948    -0.2073035853     0.6597985499
Bq        -4.7859550726     0.0101099997     1.1100520343
Bq        -4.7861381359     0.1436441094     1.1566203502
Bq        -4.7854301448     0.0566786753     0.9765189564
Bq        -4.7864921315     0.1871268264     1.2466710470
Bq        -4.7850761492     0.0131959583     0.8864682595
Bq        -4.7868461271     0.2306095434     1.3367217439
Bq        -4.7847221536    -0.0302867587     0.7964175626
Bq        -4.7872001226     0.2740922604     1.4267724408
Bq        -4.7843681581    -0.0737694757     0.7063668657
Bq        -4.7875541182     0.3175749774     1.5168231377
Bq        -4.7840141625    -0.1172521927     0.6163161689
Bq        -4.7857841404     0.1001613924     1.0665696533
Bq        -4.7859672037     0.2336955020     1.1131379691
Bq        -4.7852592125     0.1467300680     0.9330365754
Bq        -4.7863211992     0.2771782190     1.2031886660
Bq        -4.7849052169     0.1032473510     0.8429858785
Bq        -4.7866751948     0.3206609360     1.2932393629
Bq        -4.7845512214     0.0597646340     0.7529351816
Bq        -4.7870291904     0.3641436530     1.3832900598
Bq        -4.7841972258     0.0162819170     0.6628844847
Bq        -4.7873831859     0.4076263700     1.4733407566
Bq        -4.7838432302    -0.0272008000     0.5728337878
Bq        -4.7856132081     0.1902127850     1.0230872722
Bq        -4.7857962714     0.3237468947     1.0696555881
Bq        -4.7850882802     0.2367814607     0.8895541943
Bq        -4.7861502670     0.3672296117     1.1597062850
Bq        -4.7847342847     0.1932987437     0.7995034974
Bq        -4.7865042625     0.4107123287     1.2497569819
Bq        -4.7843802891     0.1498160267     0.7094528006
Bq        -4.7868582581     0.4541950457     1.3398076787
Bq        -4.7840262935     0.1063333097     0.6194021037
Bq        -4.7872122537     0.4976777627     1.4298583756
Bq        -4.7836722979     0.0628505927     0.5293514068
Bq        -4.7854422758     0.2802641777     0.9796048912
Bq        -4.7856253391     0.4137982874     1.0261732071
Bq        -4.7849173480     0.3268328534     0.8460718133
Bq        -4.7859793347     0.4572810044     1.1162239039
Bq        -4.7845633524     0.2833501364     0.7560211164
Bq        -4.7863333303     0.5007637214     1.2062746008
Bq        -4.7842093568     0.2398674194     0.6659704195
Bq        -4.7866873258     0.5442464384     1.2963252977
Bq        -4.7838553612     0.1963847023     0.5759197226
Bq        -4.7870413214     0.5877291554     1.3863759946
Bq        -4.7835013657     0.1529019853     0.4858690258
Bq        -4.7852713435     0.3703155704     0.9361225102
Bq        -4.7854544068     0.5038496800     0.9826908260
Bq        -4.7847464157     0.4168842460     0.8025894323
Bq        -4.7858084024     0.5473323970     1.0727415229
Bq        -4.7843924201     0.3734015290     0.7125387354
Bq        -4.7861623980     0.5908151140     1.1627922198
Bq        -4.7840384245     0.3299188120     0.6224880385
Bq        -4.7865163935     0.6342978311     1.2528429167
Bq        -4.7836844290     0.2864360950     0.5324373416
Bq        -4.7868703891     0.6777805481     1.3428936136
Bq        -4.7833304334     0.2429533780     0.4423866447
Bq        -4.7851004113     0.4603669630     0.8926401291
Bq        -4.7852834746     0.5939010727     0.9392084450
Bq        -4.7845754834     0.5069356387     0.7591070512
Bq        -4.7856374701     0.6373837897     1.0292591419
Bq        -4.7842214878     0.4634529217     0.6690563543
Bq        -4.7859914657     0.6808665067     1.1193098388
Bq        -4.7838674923     0.4199702047     0.5790056575
Bq        -4.7863454613     0.7243492237     1.2093605356
Bq        -4.7835134967     0.3764874877     0.4889549606
Bq        -4.7866994568     0.7678319407     1.2994112325
Bq        -4.7831595011     0.3330047707     0.3989042637
Bq        -4.7849294790     0.5504183557     0.8491577481
Bq        -4.7851125423     0.6839524654     0.8957260640
Bq        -4.7844045511     0.5969870314     0.7156246702
Bq        -4.7854665379     0.7274351824     0.9857767608
Bq        -4.7840505556     0.5535043144     0.6255739733
Bq        -4.7858205334     0.7709178994     1.0758274577
Bq        -4.7836965600     0.5100215974     0.5355232764
Bq        -4.7861745290     0.8144006164     1.1658781546
Bq        -4.7833425644     0.4665388804     0.4454725795
Bq        -4.7865285246     0.8578833334     1.2559288515
Bq        -4.7829885688     0.4230561634     0.3554218827
Bq        -4.7847585467     0.6404697484     0.8056753671
Bq        -4.7849416100     0.7740038581     0.8522436829
Bq        -4.7842336189     0.6870384240     0.6721422892
Bq        -4.7852956056     0.8174865751     0.9422943798
Bq        -4.7838796233     0.6435557070     0.5820915923
Bq        -4.7856496012     0.8609692921     1.0323450767
Bq        -4.7835256277     0.6000729900     0.4920408954
Bq        -4.7860035967     0.9044520091     1.1223957736
Bq        -4.7831716321     0.5565902730     0.4019901985
Bq        -4.7863575923     0.9479347261     1.2124464705
Bq        -4.7828176366     0.5131075560     0.3119395016
Bq        -4.7845876144     0.7305211410     0.7621929860
Bq        -4.7847706777     0.8640552507     0.8087613019
Bq        -4.7840626866     0.7770898167     0.6286599081
Bq        -4.7851246733     0.9075379677     0.8988119988
Bq        -4.7837086910     0.7336070997     0.5386092112
Bq        -4.7854786689     0.9510206847     0.9888626957
Bq        -4.7833546954     0.6901243827     0.4485585144
Bq        -4.7858326645     0.9945034017     1.0789133925
Bq        -4.7830006999     0.6466416657     0.3585078175
Bq        -4.7861866600     1.0379861187     1.1689640894
Bq        -4.7826467043     0.6031589487     0.2684571206
Bq        -4.7844166822     0.8205725337     0.7187106050
Bq        -4.7845997455     0.9541066434     0.7652789209
Bq        -4.7838917543     0.8671412094     0.5851775271
Bq        -4.7849537410     0.9975893604     0.8553296177
Bq        -4.7835377587     0.8236584924     0.4951268302
Bq        -4.7853077366     1.0410720774     0.9453803146
Bq        -4.7831837632     0.7801757754     0.4050761333
Bq        -4.7856617322     1.0845547944     1.0354310115
Bq        -4.7828297676     0.7366930584     0.3150254364
Bq        -4.7860157278     1.1280375114     1.1254817084
Bq        -4.7824757720     0.6932103414     0.2249747396
Bq        -4.7842457499     0.9106239264     0.6752282240
Bq        -4.7844288132     1.0441580361     0.7217965398
Bq        -4.7837208220     0.9571926021     0.5416951461
Bq        -4.7847828088     1.0876407531     0.8118472367
Bq        -4.7833668265     0.9137098850     0.4516444492
Bq        -4.7851368043     1.1311234701     0.9018979336
Bq        -4.7830128309     0.8702271680     0.3615937523
Bq        -4.7854907999     1.1746061871     0.9919486305
Bq        -4.7826588353     0.8267444510     0.2715430554
Bq        -4.7858447955     1.2180889041     1.0819993274
Bq        -4.7823048397     0.7832617340     0.1814923585
Bq        -4.7840748176     1.0006753191     0.6317458429
Bq        -4.7842578809     1.1342094287     0.6783141588
Bq        -4.7835498898     1.0472439947     0.4982127650
Bq        -4.7846118765     1.1776921457     0.7683648557
Bq        -4.7831958942     1.0037612777     0.4081620681
Bq        -4.7849658721     1.2211748627     0.8584155526
Bq        -4.7828418986     0.9602785607     0.3181113713
Bq        -4.7853198676     1.2646575797     0.9484662494
Bq        -4.7824879030     0.9167958437     0.2280606744
Bq        -4.7856738632     1.3081402968     1.0385169463

1
2
3
4
5
6
7
8
9
10
11
12
13
14
15
16
17
18
19
20
21
22
23
24
25
26
27
28
29
30
31
32
33
34
35
36
37
38
39
40
41
42
43
44
45
46
47
48
49
50
51
52
53
54
55
56
57
58
59
60
61
62
63
64
65
66
67
68
69
70
71
72
73
74
75
76
77
78
79
80
81
82
83
84
85
86
87
88
89
90
91
92
93
94
95
96
97
98
99
100
101
102
103
104
105
106
107
108
109
110
111
112
113
114
115
116
117
118
119
120
121
122
123
124
125
126
127
128
129
130
131
132
133
134
135
136
137
138
139
140
141
142
143
144
145
146
147
148
149
150
151
152
153
154
155
156
157
158
159
160
161
162
163
164
165
166
167
168
169
170
171
172
173
174
175
176
177
178
179
180
181
182
183
184
185
186
187
188
189
190
191
192
193
194
195
196
197
198
199
200
201
202
203
204
205
206
207
208
209
210
211
212
213
214
215
216
217
218
219
220
221
222
223
224
225
226
227
228
229
230
231
232
233
234
235
236

