%nproc=8
%mem=1000MB
# rb3lyp/6-311+g** NMR geom=connectivity

Title

0 1
C    -4.0500558   -0.5771862    0.8136712
H    -5.0263804   -1.0082727    1.0024760
C    -3.9381552    0.6617804    0.2400876
H    -4.8252424    1.2338890   -0.0111295
C    -2.6768410    1.2433246    0.0057578
C    -1.4974121    0.5051527    0.2848253
C    -1.6508332   -0.7338728    0.9404026
H    -0.7713646   -1.2730967    1.2633753
C    -2.8898548   -1.2624035    1.1994307
H    -2.9683706   -2.2124563    1.7152676
C    -2.5773185    2.5963696   -0.4192930
H    -3.4870728    3.1412239   -0.6474055
C    -1.3741895    3.2147896   -0.4364030
H    -1.2997315    4.2742019   -0.6578144
C    -0.1719488    2.4994090   -0.1734588
C    -0.2043917    1.1018437    0.0192689
C     1.0513491    3.2042560   -0.0676222
H     1.0427344    4.2819499   -0.1896997
C     2.1942091    2.5487446    0.2579577
H     3.1168527    3.0912848    0.4334727
C     2.2216473    1.1336562    0.2934990
C     1.0486931    0.3945528    0.0302412
C     3.4483363    0.4614633    0.5573939
H     4.3095794    1.0606054    0.8334846
C     3.5427346   -0.8855926    0.4749463
H     4.4731467   -1.3939704    0.7038822
C     2.4490052   -1.6474447   -0.0196319
C     1.2150704   -1.0057258   -0.3013573
C     0.2531113   -1.7434440   -1.0216591
H    -0.6541356   -1.2535051   -1.3462847
C     0.4494193   -3.0628597   -1.3413779
H    -0.3083162   -3.5944309   -1.9054060
C     1.6251726   -3.7207967   -0.9552541
H     1.7670048   -4.7687404   -1.1927019
C     2.6109872   -3.0144177   -0.3183050
H     3.5525612   -3.4902813   -0.0646367
Bq         1.2918522828     1.9234499022     0.2962489678
Bq         1.1905206115     1.9578442978     0.9880212699
Bq         1.3063282358     1.9185364171     0.1974243532
Bq         1.1760446584     1.9627577829     1.0868458845
Bq         1.3208041889     1.9136229320     0.0985997386
Bq         1.2484244237     1.9381903575     0.5927228116
Bq         1.2346606046     2.0429830579     0.6866858214
Bq         1.2636125107     2.0331560878     0.4890365922
Bq         1.2201846515     2.0478965430     0.7855104360
Bq         1.2780884637     2.0282426027     0.3902119776
Bq         1.2057086985     2.0528100281     0.8843350506
Bq         1.2925644167     2.0233291176     0.2913873630
Bq         1.1912327454     2.0577235132     0.9831596651
Bq         1.3070403698     2.0184156325     0.1925627485
Bq         1.1767567924     2.0626369982     1.0819842797
Bq         1.3215163228     2.0135021474     0.0937381339
Bq         1.2491365576     2.0380695728     0.5878612068
Bq         1.2353727385     2.1428622733     0.6818242166
Bq         1.2643246446     2.1330353031     0.4841749874
Bq         1.2208967855     2.1477757584     0.7806488312
Bq         1.2788005976     2.1281218180     0.3853503729
Bq         1.2064208324     2.1526892435     0.8794734458
Bq         1.2932765507     2.1232083330     0.2865257583
Bq         1.1919448794     2.1576027285     0.9782980604
Bq         1.3077525037     2.1182948479     0.1877011437
Bq         1.1774689263     2.1625162136     1.0771226750
Bq         1.3222284568     2.1133813628     0.0888765291
Bq         1.2498486916     2.1379487882     0.5829996020
Bq         1.2360848724     2.2427414887     0.6769626119
Bq         1.2650367785     2.2329145185     0.4793133827
Bq         1.2216089194     2.2476549738     0.7757872264
Bq         1.2795127316     2.2280010334     0.3804887681
Bq         1.2071329664     2.2525684588     0.8746118410
Bq         1.2939886846     2.2230875483     0.2816641535
Bq         1.1926570133     2.2574819439     0.9734364556
Bq         1.3084646377     2.2181740633     0.1828395389
Bq         1.1781810603     2.2623954290     1.0722610702
Bq         1.3229405907     2.2132605782     0.0840149243
Bq         1.2505608255     2.2378280036     0.5781379973
Bq         1.2367970064     2.3426207040     0.6721010071
Bq         1.2657489125     2.3327937339     0.4744517779
Bq         1.2223210533     2.3475341891     0.7709256217
Bq         1.2802248655     2.3278802488     0.3756271633
Bq         1.2078451003     2.3524476742     0.8697502363
Bq         1.2947008186     2.3229667637     0.2768025487
Bq         1.1933691473     2.3573611593     0.9685748508
Bq         1.3091767716     2.3180532786     0.1779779342
Bq         1.1788931942     2.3622746444     1.0673994654
Bq         1.3236527247     2.3131397936     0.0791533196
Bq         1.2512729594     2.3377072190     0.5732763925
Bq         1.2375091403     2.4424999194     0.6672394023
Bq         1.2664610464     2.4326729493     0.4695901731
Bq         1.2230331873     2.4474134045     0.7660640169
Bq         1.2809369995     2.4277594642     0.3707655586
Bq         1.2085572342     2.4523268896     0.8648886315
Bq         1.2954129525     2.4228459791     0.2719409440
Bq         1.1940812812     2.4572403747     0.9637132461
Bq         1.3098889056     2.4179324940     0.1731163294
Bq         1.1796053282     2.4621538598     1.0625378607
Bq         1.3243648586     2.4130190089     0.0742917148
Bq         1.2519850934     2.4375864343     0.5684147877
Bq         1.2382212743     2.5423791348     0.6623777976
Bq         1.2671731804     2.5325521646     0.4647285684
Bq         1.2237453212     2.5472926199     0.7612024121
Bq         1.2816491334     2.5276386796     0.3659039538
Bq         1.2092693682     2.5522061050     0.8600270267
Bq         1.2961250865     2.5227251945     0.2670793392
Bq         1.1947934151     2.5571195900     0.9588516413
Bq         1.3106010395     2.5178117094     0.1682547246
Bq         1.1803174621     2.5620330751     1.0576762559
Bq         1.3250769925     2.5128982243     0.0694301100
Bq         1.2526972273     2.5374656497     0.5635531830
Bq         1.2389334082     2.6422583502     0.6575161928
Bq         1.2678853143     2.6324313800     0.4598669636
Bq         1.2244574552     2.6471718353     0.7563408074
Bq         1.2823612673     2.6275178949     0.3610423490
Bq         1.2099815021     2.6520853203     0.8551654220
Bq         1.2968372204     2.6226044098     0.2622177344
Bq         1.1955055491     2.6569988054     0.9539900365
Bq         1.3113131734     2.6176909248     0.1633931199
Bq         1.1810295960     2.6619122905     1.0528146511
Bq         1.3257891265     2.6127774397     0.0645685053
Bq         1.2534093613     2.6373448651     0.5586915782
Bq         1.2396455422     2.7421375656     0.6526545880
Bq         1.2685974482     2.7323105954     0.4550053588
Bq         1.2251695891     2.7470510506     0.7514792026
Bq         1.2830734013     2.7273971103     0.3561807443
Bq         1.2106936361     2.7519645357     0.8503038172
Bq         1.2975493543     2.7224836252     0.2573561297
Bq         1.1962176830     2.7568780208     0.9491284318
Bq         1.3120253074     2.7175701401     0.1585315151
Bq         1.1817417300     2.7617915059     1.0479530464
Bq         1.3265012604     2.7126566551     0.0597069005
Bq         1.2541214952     2.7372240805     0.5538299734
Bq         1.2403576761     2.8420167809     0.6477929833
Bq         1.2693095822     2.8321898108     0.4501437541
Bq         1.2258817231     2.8469302660     0.7466175978
Bq         1.2837855352     2.8272763257     0.3513191395
Bq         1.2114057700     2.8518437511     0.8454422124
Bq         1.2982614883     2.8223628406     0.2524945249
Bq         1.1969298170     2.8567572362     0.9442668270
Bq         1.3127374413     2.8174493555     0.1536699103
Bq         1.1824538639     2.8616707213     1.0430914416
Bq         1.3272133944     2.8125358704     0.0548452957
Bq         1.2548336291     2.8371032959     0.5489683687
Bq         1.2410698100     2.9418959963     0.6429313785
Bq         1.2700217161     2.9320690261     0.4452821493
Bq         1.2265938570     2.9468094814     0.7417559931
Bq         1.2844976692     2.9271555411     0.3464575347
Bq         1.2121179040     2.9517229665     0.8405806077
Bq         1.2989736222     2.9222420560     0.2476329201
Bq         1.1976419509     2.9566364516     0.9394052222
Bq         1.3134495753     2.9173285709     0.1488083056
Bq         1.1831659979     2.9615499366     1.0382298368
Bq         1.3279255283     2.9124150858     0.0499836910
Bq         1.2555457631     2.9369825112     0.5441067639
Bq         1.2417819440     3.0417752117     0.6380697737
Bq         1.2707338501     3.0319482415     0.4404205445
Bq         1.2273059909     3.0466886968     0.7368943883
Bq         1.2852098031     3.0270347564     0.3415959300
Bq         1.2128300379     3.0516021819     0.8357190029
Bq         1.2996857562     3.0221212714     0.2427713154
Bq         1.1983540848     3.0565156669     0.9345436175
Bq         1.3141617092     3.0172077863     0.1439467008
Bq         1.1838781318     3.0614291520     1.0333682321
Bq         1.3286376622     3.0122943012     0.0451220862
Bq         1.2562578970     3.0368617266     0.5392451591
Bq         1.2424940779     3.1416544271     0.6332081690
Bq         1.2714459840     3.1318274569     0.4355589398
Bq         1.2280181249     3.1465679121     0.7320327835
Bq         1.2859219371     3.1269139718     0.3367343252
Bq         1.2135421718     3.1514813972     0.8308573981
Bq         1.3003978901     3.1220004867     0.2379097106
Bq         1.1990662188     3.1563948823     0.9296820127
Bq         1.3148738431     3.1170870017     0.1390850960
Bq         1.1845902657     3.1613083674     1.0285066273
Bq         1.3293497962     3.1121735166     0.0402604814
Bq         1.2569700310     3.1367409420     0.5343835544
Bq         1.2432062119     3.2415336424     0.6283465642
Bq         1.2721581180     3.2317066723     0.4306973350
Bq         1.2287302588     3.2464471275     0.7271711788
Bq         1.2866340710     3.2267931872     0.3318727204
Bq         1.2142543058     3.2513606126     0.8259957934
Bq         1.3011100240     3.2218797021     0.2330481058
Bq         1.1997783527     3.2562740977     0.9248204079
Bq         1.3155859771     3.2169662170     0.1342234913
Bq         1.1853023997     3.2611875828     1.0236450225
Bq         1.3300619301     3.2120527319     0.0353988767
Bq         1.2576821649     3.2366201574     0.5295219496
Bq         1.2439183458     3.3414128578     0.6234849594
Bq         1.2728702519     3.3315858877     0.4258357303
Bq         1.2294423928     3.3463263429     0.7223095740
Bq         1.2873462049     3.3266724026     0.3270111157
Bq         1.2149664397     3.3512398280     0.8211341886
Bq         1.3018221580     3.3217589175     0.2281865011
Bq         1.2004904867     3.3561533131     0.9199588032
Bq         1.3162981110     3.3168454324     0.1293618865
Bq         1.1860145336     3.3610667981     1.0187834178
Bq         1.3307740641     3.3119319473     0.0305372719
Bq         1.2583942989     3.3364993727     0.5246603448
Bq         1.2446304797     3.4412920732     0.6186233547
Bq         1.2735823858     3.4314651030     0.4209741255
Bq         1.2301545267     3.4462055583     0.7174479692
Bq         1.2880583389     3.4265516179     0.3221495109
Bq         1.2156785737     3.4511190434     0.8162725838
Bq         1.3025342919     3.4216381329     0.2233248963
Bq         1.2012026206     3.4560325284     0.9150971984
Bq         1.3170102450     3.4167246478     0.1245002817
Bq         1.1867266676     3.4609460135     1.0139218130
Bq         1.3314861980     3.4118111627     0.0256756671
Bq         1.2591064328     3.4363785881     0.5197987401
Bq         1.2453426137     3.5411712886     0.6137617499
Bq         1.2742945198     3.5313443184     0.4161125207
Bq         1.2308666606     3.5460847737     0.7125863645
Bq         1.2887704728     3.5264308333     0.3172879061
Bq         1.2163907076     3.5509982587     0.8114109791
Bq         1.3032464259     3.5215173482     0.2184632915
Bq         1.2019147546     3.5559117438     0.9102355936
Bq         1.3177223789     3.5166038632     0.1196386770
Bq         1.1874388015     3.5608252289     1.0090602082
Bq         1.3321983320     3.5116903781     0.0208140624
Bq         1.2598185667     3.5362578035     0.5149371353
Bq         1.2460547476     3.6410505039     0.6089001451
Bq         1.2750066537     3.6312235338     0.4112509160
Bq         1.2315787946     3.6459639890     0.7077247597
Bq         1.2894826068     3.6263100487     0.3124263014
Bq         1.2171028415     3.6508774741     0.8065493743
Bq         1.3039585598     3.6213965636     0.2136016868
Bq         1.2026268885     3.6557909592     0.9053739889
Bq         1.3184345129     3.6164830785     0.1147770722
Bq         1.1881509355     3.6607044443     1.0041986035
Bq         1.3329104659     3.6115695935     0.0159524576
Bq         1.2605307007     3.6361370189     0.5100755305
Bq         1.2467668816     3.7409297193     0.6040385404
Bq         1.2757187877     3.7311027492     0.4063893112
Bq         1.2322909285     3.7458432044     0.7028631549
Bq         1.2901947407     3.7261892641     0.3075646966
Bq         1.2178149755     3.7507566895     0.8016877695
Bq         1.3046706938     3.7212757790     0.2087400820
Bq         1.2033390224     3.7556701746     0.9005123841

1
2
3
4
5
6
7
8
9
10
11
12
13
14
15
16
17
18
19
20
21
22
23
24
25
26
27
28
29
30
31
32
33
34
35
36
37
38
39
40
41
42
43
44
45
46
47
48
49
50
51
52
53
54
55
56
57
58
59
60
61
62
63
64
65
66
67
68
69
70
71
72
73
74
75
76
77
78
79
80
81
82
83
84
85
86
87
88
89
90
91
92
93
94
95
96
97
98
99
100
101
102
103
104
105
106
107
108
109
110
111
112
113
114
115
116
117
118
119
120
121
122
123
124
125
126
127
128
129
130
131
132
133
134
135
136
137
138
139
140
141
142
143
144
145
146
147
148
149
150
151
152
153
154
155
156
157
158
159
160
161
162
163
164
165
166
167
168
169
170
171
172
173
174
175
176
177
178
179
180
181
182
183
184
185
186
187
188
189
190
191
192
193
194
195
196
197
198
199
200
201
202
203
204
205
206
207
208
209
210
211
212
213
214
215
216
217
218
219
220
221
222
223
224
225
226
227
228
229
230
231
232
233
234
235
236

