%nproc=8
%mem=1000MB
# rb3lyp/6-311+g** NMR geom=connectivity

Title

0 1
C    -4.0500558   -0.5771862    0.8136712
H    -5.0263804   -1.0082727    1.0024760
C    -3.9381552    0.6617804    0.2400876
H    -4.8252424    1.2338890   -0.0111295
C    -2.6768410    1.2433246    0.0057578
C    -1.4974121    0.5051527    0.2848253
C    -1.6508332   -0.7338728    0.9404026
H    -0.7713646   -1.2730967    1.2633753
C    -2.8898548   -1.2624035    1.1994307
H    -2.9683706   -2.2124563    1.7152676
C    -2.5773185    2.5963696   -0.4192930
H    -3.4870728    3.1412239   -0.6474055
C    -1.3741895    3.2147896   -0.4364030
H    -1.2997315    4.2742019   -0.6578144
C    -0.1719488    2.4994090   -0.1734588
C    -0.2043917    1.1018437    0.0192689
C     1.0513491    3.2042560   -0.0676222
H     1.0427344    4.2819499   -0.1896997
C     2.1942091    2.5487446    0.2579577
H     3.1168527    3.0912848    0.4334727
C     2.2216473    1.1336562    0.2934990
C     1.0486931    0.3945528    0.0302412
C     3.4483363    0.4614633    0.5573939
H     4.3095794    1.0606054    0.8334846
C     3.5427346   -0.8855926    0.4749463
H     4.4731467   -1.3939704    0.7038822
C     2.4490052   -1.6474447   -0.0196319
C     1.2150704   -1.0057258   -0.3013573
C     0.2531113   -1.7434440   -1.0216591
H    -0.6541356   -1.2535051   -1.3462847
C     0.4494193   -3.0628597   -1.3413779
H    -0.3083162   -3.5944309   -1.9054060
C     1.6251726   -3.7207967   -0.9552541
H     1.7670048   -4.7687404   -1.1927019
C     2.6109872   -3.0144177   -0.3183050
H     3.5525612   -3.4902813   -0.0646367
Bq        -2.9368447192     3.0259410584     0.3502762925
Bq        -2.9137928312     2.8786451541    -0.2309057161
Bq        -2.9406867005     3.0504903758     0.4471399606
Bq        -2.9099508499     2.8540958368    -0.3277693841
Bq        -2.9445286819     3.0750396931     0.5440036287
Bq        -2.9061088686     2.8295465194    -0.4246330522
Bq        -2.9253187752     2.9522931063     0.0596852882
Bq        -2.9281878023     3.0737822556     0.1320189269
Bq        -2.9205038397     3.0246836208    -0.0617084093
Bq        -2.9320297837     3.0983315730     0.2288825950
Bq        -2.9166618583     3.0001343035    -0.1585720774
Bq        -2.9358717650     3.1228808903     0.3257462631
Bq        -2.9128198770     2.9755849861    -0.2554357455
Bq        -2.9397137463     3.1474302077     0.4226099312
Bq        -2.9089778957     2.9510356687    -0.3522994136
Bq        -2.9435557276     3.1719795251     0.5194735992
Bq        -2.9051359144     2.9264863513    -0.4491630817
Bq        -2.9243458210     3.0492329382     0.0351552588
Bq        -2.9272148481     3.1707220875     0.1074888975
Bq        -2.9195308855     3.1216234528    -0.0862384387
Bq        -2.9310568294     3.1952714049     0.2043525655
Bq        -2.9156889041     3.0970741354    -0.1831021068
Bq        -2.9348988108     3.2198207223     0.3012162336
Bq        -2.9118469228     3.0725248180    -0.2799657749
Bq        -2.9387407921     3.2443700397     0.3980799017
Bq        -2.9080049415     3.0479755006    -0.3768294430
Bq        -2.9425827734     3.2689193570     0.4949435698
Bq        -2.9041629601     3.0234261833    -0.4736931111
Bq        -2.9233728668     3.1461727701     0.0106252294
Bq        -2.9262418939     3.2676619195     0.0829588680
Bq        -2.9185579312     3.2185632847    -0.1107684682
Bq        -2.9300838752     3.2922112368     0.1798225361
Bq        -2.9147159499     3.1940139673    -0.2076321362
Bq        -2.9339258565     3.3167605542     0.2766862042
Bq        -2.9108739686     3.1694646500    -0.3044958043
Bq        -2.9377678379     3.3413098716     0.3735498723
Bq        -2.9070319872     3.1449153326    -0.4013594724
Bq        -2.9416098192     3.3658591890     0.4704135404
Bq        -2.9031900059     3.1203660152    -0.4982231405
Bq        -2.9223999126     3.2431126021    -0.0139048001
Bq        -2.9252689397     3.3646017514     0.0584288386
Bq        -2.9175849770     3.3155031167    -0.1352984976
Bq        -2.9291109210     3.3891510688     0.1552925067
Bq        -2.9137429957     3.2909537993    -0.2321621657
Bq        -2.9329529023     3.4137003862     0.2521561748
Bq        -2.9099010143     3.2664044819    -0.3290258338
Bq        -2.9367948836     3.4382497035     0.3490198429
Bq        -2.9060590330     3.2418551645    -0.4258895019
Bq        -2.9406368650     3.4627990209     0.4458835110
Bq        -2.9022170517     3.2173058471    -0.5227531699
Bq        -2.9214269583     3.3400524340    -0.0384348295
Bq        -2.9242959854     3.4615415833     0.0338988092
Bq        -2.9166120228     3.4124429486    -0.1598285270
Bq        -2.9281379668     3.4860909007     0.1307624773
Bq        -2.9127700414     3.3878936312    -0.2566921951
Bq        -2.9319799481     3.5106402181     0.2276261454
Bq        -2.9089280601     3.3633443138    -0.3535558632
Bq        -2.9358219294     3.5351895355     0.3244898134
Bq        -2.9050860788     3.3387949965    -0.4504195313
Bq        -2.9396639108     3.5597388528     0.4213534815
Bq        -2.9012440975     3.3142456791    -0.5472831994
Bq        -2.9204540041     3.4369922660    -0.0629648589
Bq        -2.9233230312     3.5584814153     0.0093687797
Bq        -2.9156390686     3.5093827805    -0.1843585564
Bq        -2.9271650125     3.5830307327     0.1062324478
Bq        -2.9117970872     3.4848334632    -0.2812222245
Bq        -2.9310069939     3.6075800500     0.2030961159
Bq        -2.9079551059     3.4602841458    -0.3780858926
Bq        -2.9348489752     3.6321293674     0.2999597840
Bq        -2.9041131246     3.4357348284    -0.4749495607
Bq        -2.9386909565     3.6566786848     0.3968234521
Bq        -2.9002711432     3.4111855110    -0.5718132288
Bq        -2.9194810499     3.5339320979    -0.0874948883
Bq        -2.9223500770     3.6554212472    -0.0151612497
Bq        -2.9146661143     3.6063226125    -0.2088885859
Bq        -2.9261920583     3.6799705646     0.0817024184
Bq        -2.9108241330     3.5817732951    -0.3057522540
Bq        -2.9300340396     3.7045198820     0.1785660865
Bq        -2.9069821517     3.5572239777    -0.4026159220
Bq        -2.9338760210     3.7290691993     0.2754297546
Bq        -2.9031401703     3.5326746603    -0.4994795901
Bq        -2.9377180023     3.7536185167     0.3722934227
Bq        -2.8992981890     3.5081253430    -0.5963432582
Bq        -2.9185080957     3.6308719298    -0.1120249178
Bq        -2.9213771228     3.7523610792    -0.0396912791
Bq        -2.9136931601     3.7032624444    -0.2334186153
Bq        -2.9252191041     3.7769103965     0.0571723890
Bq        -2.9098511788     3.6787131270    -0.3302822834
Bq        -2.9290610854     3.8014597139     0.1540360571
Bq        -2.9060091974     3.6541638097    -0.4271459515
Bq        -2.9329030667     3.8260090313     0.2508997252
Bq        -2.9021672161     3.6296144923    -0.5240096196
Bq        -2.9367450481     3.8505583487     0.3477633933
Bq        -2.8983252348     3.6050651749    -0.6208732876
Bq        -2.9175351414     3.7278117618    -0.1365549472
Bq        -2.9204041685     3.8493009111    -0.0642213085
Bq        -2.9127202059     3.8002022763    -0.2579486447
Bq        -2.9242461499     3.8738502285     0.0326423596
Bq        -2.9088782246     3.7756529590    -0.3548123128
Bq        -2.9280881312     3.8983995458     0.1295060276
Bq        -2.9050362432     3.7511036416    -0.4516759809
Bq        -2.9319301125     3.9229488632     0.2263696957
Bq        -2.9011942619     3.7265543242    -0.5485396490
Bq        -2.9357720939     3.9474981806     0.3232333638
Bq        -2.8973522806     3.7020050068    -0.6454033171
Bq        -2.9165621872     3.8247515937    -0.1610849766
Bq        -2.9194312143     3.9462407430    -0.0887513380
Bq        -2.9117472517     3.8971421083    -0.2824786741
Bq        -2.9232731956     3.9707900604     0.0081123301
Bq        -2.9079052703     3.8725927909    -0.3793423422
Bq        -2.9271151770     3.9953393778     0.1049759982
Bq        -2.9040632890     3.8480434735    -0.4762060103
Bq        -2.9309571583     4.0198886952     0.2018396663
Bq        -2.9002213077     3.8234941562    -0.5730696784
Bq        -2.9347991396     4.0444380125     0.2987033344
Bq        -2.8963793263     3.7989448388    -0.6699333465
Bq        -2.9155892330     3.9216914257    -0.1856150061
Bq        -2.9184582601     4.0431805750    -0.1132813674
Bq        -2.9107742974     3.9940819402    -0.3070087036
Bq        -2.9223002414     4.0677298924    -0.0164176993
Bq        -2.9069323161     3.9695326228    -0.4038723717
Bq        -2.9261422227     4.0922792097     0.0804459688
Bq        -2.9030903348     3.9449833055    -0.5007360398
Bq        -2.9299842041     4.1168285271     0.1773096369
Bq        -2.8992483534     3.9204339881    -0.5975997078
Bq        -2.9338261854     4.1413778445     0.2741733050
Bq        -2.8954063721     3.8958846707    -0.6944633759
Bq        -2.9146162788     4.0186312576    -0.2101450355
Bq        -2.9174853059     4.1401204069    -0.1378113968
Bq        -2.9098013432     4.0910217722    -0.3315387330
Bq        -2.9213272872     4.1646697243    -0.0409477287
Bq        -2.9059593619     4.0664724548    -0.4284024011
Bq        -2.9251692685     4.1892190417     0.0559159394
Bq        -2.9021173805     4.0419231374    -0.5252660692
Bq        -2.9290112499     4.2137683590     0.1527796075
Bq        -2.8982753992     4.0173738200    -0.6221297373
Bq        -2.9328532312     4.2383176764     0.2496432755
Bq        -2.8944334179     3.9928245027    -0.7189934054
Bq        -2.9136433245     4.1155710895    -0.2346750649
Bq        -2.9165123516     4.2370602389    -0.1623414262
Bq        -2.9088283890     4.1879616041    -0.3560687624
Bq        -2.9203543330     4.2616095562    -0.0654777582
Bq        -2.9049864077     4.1634122867    -0.4529324305
Bq        -2.9241963143     4.2861588736     0.0313859099
Bq        -2.9011444263     4.1388629694    -0.5497960986
Bq        -2.9280382956     4.3107081910     0.1282495780
Bq        -2.8973024450     4.1143136520    -0.6466597667
Bq        -2.9318802770     4.3352575084     0.2251132461
Bq        -2.8934604637     4.0897643346    -0.7435234348
Bq        -2.9126703703     4.2125109215    -0.2592050943
Bq        -2.9155393974     4.3340000708    -0.1868714557
Bq        -2.9078554348     4.2849014360    -0.3805987919
Bq        -2.9193813787     4.3585493882    -0.0900077876
Bq        -2.9040134534     4.2603521187    -0.4774624599
Bq        -2.9232233601     4.3830987055     0.0068558805
Bq        -2.9001714721     4.2358028013    -0.5743261280
Bq        -2.9270653414     4.4076480229     0.1037195486
Bq        -2.8963294908     4.2112534839    -0.6711897961
Bq        -2.9309073227     4.4321973403     0.2005832167
Bq        -2.8924875094     4.1867041665    -0.7680534642
Bq        -2.9116974161     4.3094507534    -0.2837351238
Bq        -2.9145664432     4.4309399027    -0.2114014851
Bq        -2.9068824805     4.3818412680    -0.4051288213
Bq        -2.9184084245     4.4554892201    -0.1145378170
Bq        -2.9030404992     4.3572919506    -0.5019924894
Bq        -2.9222504058     4.4800385375    -0.0176741489
Bq        -2.8991985179     4.3327426332    -0.5988561575
Bq        -2.9260923872     4.5045878549     0.0791895192
Bq        -2.8953565365     4.3081933159    -0.6957198255
Bq        -2.9299343685     4.5291371722     0.1760531873
Bq        -2.8915145552     4.2836439985    -0.7925834936
Bq        -2.9107244619     4.4063905854    -0.3082651532
Bq        -2.8632927226    -0.4160516942     1.0190632501
Bq        -2.8556087599    -0.4651503290     0.8253359139
Bq        -2.8671347039    -0.3915023768     1.1159269182
Bq        -2.8517667786    -0.4896996464     0.7284722459
Bq        -2.8709766852    -0.3669530595     1.2127905863
Bq        -2.8479247973    -0.5142489637     0.6316085778
Bq        -2.8748186666    -0.3424037421     1.3096542544
Bq        -2.8440828159    -0.5387982811     0.5347449097
Bq        -2.8786606479    -0.3178544247     1.4065179225
Bq        -2.8402408346    -0.5633475985     0.4378812416
Bq        -2.8594507413    -0.4406010116     0.9221995820
Bq        -2.8623197684    -0.3191118623     0.9945332207
Bq        -2.8546358057    -0.3682104970     0.8008058845
Bq        -2.8661617497    -0.2945625449     1.0913968888
Bq        -2.8507938244    -0.3927598144     0.7039422164
Bq        -2.8700037310    -0.2700132275     1.1882605569
Bq        -2.8469518430    -0.4173091318     0.6070785483
Bq        -2.8738457123    -0.2454639102     1.2851242250
Bq        -2.8431098617    -0.4418584492     0.5102148802
Bq        -2.8776876937    -0.2209145928     1.3819878931
Bq        -2.8392678804    -0.4664077665     0.4133512122
Bq        -2.8584777870    -0.3436611797     0.8976695526
Bq        -2.8613468141    -0.2221720303     0.9700031913
Bq        -2.8536628515    -0.2712706651     0.7762758551
Bq        -2.8651887955    -0.1976227130     1.0668668594
Bq        -2.8498208701    -0.2958199825     0.6794121870
Bq        -2.8690307768    -0.1730733956     1.1637305274
Bq        -2.8459788888    -0.3203692998     0.5825485189

1
2
3
4
5
6
7
8
9
10
11
12
13
14
15
16
17
18
19
20
21
22
23
24
25
26
27
28
29
30
31
32
33
34
35
36
37
38
39
40
41
42
43
44
45
46
47
48
49
50
51
52
53
54
55
56
57
58
59
60
61
62
63
64
65
66
67
68
69
70
71
72
73
74
75
76
77
78
79
80
81
82
83
84
85
86
87
88
89
90
91
92
93
94
95
96
97
98
99
100
101
102
103
104
105
106
107
108
109
110
111
112
113
114
115
116
117
118
119
120
121
122
123
124
125
126
127
128
129
130
131
132
133
134
135
136
137
138
139
140
141
142
143
144
145
146
147
148
149
150
151
152
153
154
155
156
157
158
159
160
161
162
163
164
165
166
167
168
169
170
171
172
173
174
175
176
177
178
179
180
181
182
183
184
185
186
187
188
189
190
191
192
193
194
195
196
197
198
199
200
201
202
203
204
205
206
207
208
209
210
211
212
213
214
215
216
217
218
219
220
221
222
223
224
225
226
227
228
229
230
231
232
233
234
235
236

