%nproc=8
%mem=1000MB
# rb3lyp/6-311+g** NMR geom=connectivity

Title

0 1
C    -4.0500558   -0.5771862    0.8136712
H    -5.0263804   -1.0082727    1.0024760
C    -3.9381552    0.6617804    0.2400876
H    -4.8252424    1.2338890   -0.0111295
C    -2.6768410    1.2433246    0.0057578
C    -1.4974121    0.5051527    0.2848253
C    -1.6508332   -0.7338728    0.9404026
H    -0.7713646   -1.2730967    1.2633753
C    -2.8898548   -1.2624035    1.1994307
H    -2.9683706   -2.2124563    1.7152676
C    -2.5773185    2.5963696   -0.4192930
H    -3.4870728    3.1412239   -0.6474055
C    -1.3741895    3.2147896   -0.4364030
H    -1.2997315    4.2742019   -0.6578144
C    -0.1719488    2.4994090   -0.1734588
C    -0.2043917    1.1018437    0.0192689
C     1.0513491    3.2042560   -0.0676222
H     1.0427344    4.2819499   -0.1896997
C     2.1942091    2.5487446    0.2579577
H     3.1168527    3.0912848    0.4334727
C     2.2216473    1.1336562    0.2934990
C     1.0486931    0.3945528    0.0302412
C     3.4483363    0.4614633    0.5573939
H     4.3095794    1.0606054    0.8334846
C     3.5427346   -0.8855926    0.4749463
H     4.4731467   -1.3939704    0.7038822
C     2.4490052   -1.6474447   -0.0196319
C     1.2150704   -1.0057258   -0.3013573
C     0.2531113   -1.7434440   -1.0216591
H    -0.6541356   -1.2535051   -1.3462847
C     0.4494193   -3.0628597   -1.3413779
H    -0.3083162   -3.5944309   -1.9054060
C     1.6251726   -3.7207967   -0.9552541
H     1.7670048   -4.7687404   -1.1927019
C     2.6109872   -3.0144177   -0.3183050
H     3.5525612   -3.4902813   -0.0646367
Bq        -2.4809672837     1.7272583777    -0.1542393642
Bq        -2.4841532438     2.1186028308     0.6562169077
Bq        -2.4806132881     1.6837756607    -0.2442900611
Bq        -2.4823832660     1.9011892458     0.2059634233
Bq        -2.4825663293     2.0347233554     0.2525317391
Bq        -2.4818583381     1.9477579214     0.0724303454
Bq        -2.4829203248     2.0782060724     0.3425824360
Bq        -2.4815043425     1.9042752044    -0.0176203515
Bq        -2.4832743204     2.1216887894     0.4326331329
Bq        -2.4811503470     1.8607924874    -0.1076710484
Bq        -2.4836283160     2.1651715065     0.5226838298
Bq        -2.4807963514     1.8173097704    -0.1977217453
Bq        -2.4839823116     2.2086542235     0.6127345267
Bq        -2.4804423558     1.7738270534    -0.2877724422
Bq        -2.4822123337     1.9912406384     0.1624810423
Bq        -2.4823953970     2.1247747481     0.2090493581
Bq        -2.4816874058     2.0378093141     0.0289479643
Bq        -2.4827493926     2.1682574651     0.2991000550
Bq        -2.4813334103     1.9943265971    -0.0611027325
Bq        -2.4831033881     2.2117401821     0.3891507519
Bq        -2.4809794147     1.9508438801    -0.1511534294
Bq        -2.4834573837     2.2552228991     0.4792014488
Bq        -2.4806254191     1.9073611631    -0.2412041263
Bq        -2.4838113793     2.2987056161     0.5692521456
Bq        -2.4802714235     1.8638784461    -0.3312548232
Bq        -2.4820414014     2.0812920311     0.1189986612
Bq        -2.4822244647     2.2148261408     0.1655669771
Bq        -2.4815164736     2.1278607068    -0.0145344167
Bq        -2.4825784603     2.2583088578     0.2556176740
Bq        -2.4811624780     2.0843779898    -0.1045851136
Bq        -2.4829324559     2.3017915748     0.3456683708
Bq        -2.4808084824     2.0408952728    -0.1946358105
Bq        -2.4832864514     2.3452742918     0.4357190677
Bq        -2.4804544868     1.9974125558    -0.2846865073
Bq        -2.4836404470     2.3887570088     0.5257697646
Bq        -2.4801004913     1.9539298388    -0.3747372042
Bq        -2.4818704691     2.1713434238     0.0755162802
Bq        -2.4820535324     2.3048775334     0.1220845960
Bq        -2.4813455413     2.2179120994    -0.0580167977
Bq        -2.4824075280     2.3483602505     0.2121352929
Bq        -2.4809915457     2.1744293824    -0.1480674946
Bq        -2.4827615236     2.3918429675     0.3021859898
Bq        -2.4806375501     2.1309466654    -0.2381181915
Bq        -2.4831155192     2.4353256845     0.3922366867
Bq        -2.4802835546     2.0874639484    -0.3281688884
Bq        -2.4834695147     2.4788084015     0.4822873836
Bq        -2.4799295590     2.0439812314    -0.4182195853
Bq        -2.4816995369     2.2613948164     0.0320338992
Bq        -2.4818826002     2.3949289261     0.0786022150
Bq        -2.4811746090     2.3079634921    -0.1014991788
Bq        -2.4822365957     2.4384116431     0.1686529119
Bq        -2.4808206134     2.2644807751    -0.1915498756
Bq        -2.4825905913     2.4818943601     0.2587036088
Bq        -2.4804666179     2.2209980581    -0.2816005725
Bq        -2.4829445869     2.5253770771     0.3487543057
Bq        -2.4801126223     2.1775153411    -0.3716512694
Bq        -2.4832985825     2.5688597941     0.4388050025
Bq        -2.4797586267     2.1340326241    -0.4617019663
Bq        -2.4815286046     2.3514462091    -0.0114484819
Bq        -2.4817116679     2.4849803188     0.0351198340
Bq        -2.4810036767     2.3980148848    -0.1449815598
Bq        -2.4820656635     2.5284630358     0.1251705309
Bq        -2.4806496812     2.3545321678    -0.2350322567
Bq        -2.4824196590     2.5719457528     0.2152212277
Bq        -2.4802956856     2.3110494508    -0.3250829536
Bq        -2.4827736546     2.6154284698     0.3052719246
Bq        -2.4799416900     2.2675667338    -0.4151336504
Bq        -2.4831276502     2.6589111868     0.3953226215
Bq        -2.4795876944     2.2240840168    -0.5051843473
Bq        -2.4813576723     2.4414976018    -0.0549308629
Bq        -2.3902590543    -2.0175893147     2.2096319895
Bq        -2.3895510631    -2.1045547487     2.0295305958
Bq        -2.3906130498    -1.9741065977     2.2996826864
Bq        -2.3891970676    -2.1480374658     1.9394798989
Bq        -2.3909670454    -1.9306238807     2.3897333833
Bq        -2.3888430720    -2.1915201828     1.8494292020
Bq        -2.3913210410    -1.8871411637     2.4797840802
Bq        -2.3884890764    -2.2350028998     1.7593785051
Bq        -2.3916750366    -1.8436584467     2.5698347771
Bq        -2.3881350808    -2.2784856168     1.6693278082
Bq        -2.3899050587    -2.0610720317     2.1195812927
Bq        -2.3900881220    -1.9275379221     2.1661496085
Bq        -2.3893801309    -2.0145033561     1.9860482147
Bq        -2.3904421176    -1.8840552051     2.2562003054
Bq        -2.3890261353    -2.0579860731     1.8959975179
Bq        -2.3907961131    -1.8405724881     2.3462510023
Bq        -2.3886721397    -2.1014687901     1.8059468210
Bq        -2.3911501087    -1.7970897711     2.4363016992
Bq        -2.3883181441    -2.1449515071     1.7158961241
Bq        -2.3915041043    -1.7536070540     2.5263523960
Bq        -2.3879641486    -2.1884342241     1.6258454272
Bq        -2.3897341264    -1.9710206391     2.0760989116
Bq        -2.3899171897    -1.8374865294     2.1226672275
Bq        -2.3892091986    -1.9244519634     1.9425658337
Bq        -2.3902711853    -1.7940038124     2.2127179244
Bq        -2.3888552030    -1.9679346804     1.8525151368
Bq        -2.3906251809    -1.7505210954     2.3027686212
Bq        -2.3885012074    -2.0114173974     1.7624644399
Bq        -2.3909791764    -1.7070383784     2.3928193181
Bq        -2.3881472119    -2.0549001144     1.6724137431
Bq        -2.3913331720    -1.6635556614     2.4828700150
Bq        -2.3877932163    -2.0983828314     1.5823630462
Bq        -2.3895631942    -1.8809692464     2.0326165306
Bq        -2.3897462575    -1.7474351367     2.0791848464
Bq        -2.3890382663    -1.8344005707     1.8990834527
Bq        -2.3901002530    -1.7039524197     2.1692355433
Bq        -2.3886842707    -1.8778832877     1.8090327558
Bq        -2.3904542486    -1.6604697027     2.2592862402
Bq        -2.3883302752    -1.9213660047     1.7189820589
Bq        -2.3908082442    -1.6169869857     2.3493369371
Bq        -2.3879762796    -1.9648487217     1.6289313620
Bq        -2.3911622397    -1.5735042687     2.4393876340
Bq        -2.3876222840    -2.0083314388     1.5388806651
Bq        -2.3893922619    -1.7909178537     1.9891341496
Bq        -2.3895753252    -1.6573837441     2.0357024654
Bq        -2.3888673340    -1.7443491781     1.8556010716
Bq        -2.3899293208    -1.6139010270     2.1257531623
Bq        -2.3885133385    -1.7878318951     1.7655503748
Bq        -2.3902833163    -1.5704183100     2.2158038592
Bq        -2.3881593429    -1.8313146121     1.6754996779
Bq        -2.3906373119    -1.5269355930     2.3058545561
Bq        -2.3878053473    -1.8747973291     1.5854489810
Bq        -2.3909913075    -1.4834528760     2.3959052529
Bq        -2.3874513517    -1.9182800461     1.4953982841
Bq        -2.3892213296    -1.7008664611     1.9456517685
Bq        -2.3894043929    -1.5673323514     1.9922200844
Bq        -2.3886964018    -1.6542977854     1.8121186906
Bq        -2.3897583885    -1.5238496344     2.0822707813
Bq        -2.3883424062    -1.6977805024     1.7220679937
Bq        -2.3901123841    -1.4803669174     2.1723214781
Bq        -2.3879884106    -1.7412632194     1.6320172968
Bq        -2.3904663796    -1.4368842004     2.2623721750
Bq        -2.3876344150    -1.7847459364     1.5419666000
Bq        -2.3908203752    -1.3934014834     2.3524228719
Bq        -2.3872804195    -1.8282286534     1.4519159031
Bq        -2.3890503973    -1.6108150684     1.9021693875
Bq        -2.3892334606    -1.4772809587     1.9487377033
Bq        -2.3885254695    -1.5642463927     1.7686363096
Bq        -2.3895874562    -1.4337982417     2.0387884002
Bq        -2.3881714739    -1.6077291097     1.6785856127
Bq        -2.3899414518    -1.3903155247     2.1288390971
Bq        -2.3878174783    -1.6512118267     1.5885349158
Bq        -2.3902954474    -1.3468328077     2.2188897940
Bq        -2.3874634828    -1.6946945437     1.4984842189
Bq        -2.3906494429    -1.3033500907     2.3089404909
Bq        -2.3871094872    -1.7381772607     1.4084335221
Bq        -2.3888794651    -1.5207636757     1.8586870065
Bq        -2.3890625284    -1.3872295660     1.9052553223
Bq        -2.3883545372    -1.4741950001     1.7251539286
Bq        -2.3894165239    -1.3437468490     1.9953060192
Bq        -2.3880005416    -1.5176777171     1.6351032317
Bq        -2.3897705195    -1.3002641320     2.0853567161
Bq        -2.3876465461    -1.5611604341     1.5450525348
Bq        -2.3901245151    -1.2567814150     2.1754074130
Bq        -2.3872925505    -1.6046431511     1.4550018379
Bq        -2.3904785107    -1.2132986980     2.2654581098
Bq        -2.3869385549    -1.6481258681     1.3649511410
Bq        -2.3887085328    -1.4307122830     1.8152046254
Bq        -2.3888915961    -1.2971781734     1.8617729413
Bq        -2.3881836049    -1.3841436074     1.6816715475
Bq        -2.3892455917    -1.2536954564     1.9518236382
Bq        -2.3878296094    -1.4276263244     1.5916208506
Bq        -2.3895995872    -1.2102127394     2.0418743350
Bq        -2.3874756138    -1.4711090414     1.5015701538
Bq        -2.3899535828    -1.1667300224     2.1319250319
Bq        -2.3871216182    -1.5145917584     1.4115194569
Bq        -2.3903075784    -1.1232473054     2.2219757288
Bq        -2.3867676226    -1.5580744754     1.3214687600
Bq        -2.3885376005    -1.3406608904     1.7717222444
Bq        -2.3887206638    -1.2071267807     1.8182905603
Bq        -2.3880126727    -1.2940922147     1.6381891665
Bq        -2.3890746594    -1.1636440637     1.9083412571
Bq        -2.3876586771    -1.3375749317     1.5481384696
Bq        -2.3894286550    -1.1201613467     1.9983919540
Bq        -2.3873046815    -1.3810576487     1.4580877727
Bq        -2.3897826505    -1.0766786297     2.0884426509
Bq        -2.3869506859    -1.4245403657     1.3680370758
Bq        -2.3901366461    -1.0331959127     2.1784933478
Bq        -2.3865966904    -1.4680230827     1.2779863790
Bq        -2.3883666682    -1.2506094977     1.7282398634
Bq        -2.3885497315    -1.1170753880     1.7748081792
Bq        -2.3878417404    -1.2040408220     1.5947067855
Bq        -2.3889037271    -1.0735926710     1.8648588761
Bq        -2.3874877448    -1.2475235390     1.5046560886
Bq        -2.3892577227    -1.0301099540     1.9549095730
Bq        -2.3871337492    -1.2910062560     1.4146053917
Bq        -2.3896117183    -0.9866272370     2.0449602699
Bq        -2.3867797537    -1.3344889731     1.3245546948
Bq        -2.3899657138    -0.9431445200     2.1350109667
Bq        -2.3864257581    -1.3779716901     1.2345039979
Bq        -2.3881957360    -1.1605581050     1.6847574823
Bq        -2.3883787993    -1.0270239954     1.7313257982
Bq        -2.3876708081    -1.1139894294     1.5512244044
Bq        -2.3887327948    -0.9835412784     1.8213764951
Bq        -2.3873168125    -1.1574721464     1.4611737075
Bq        -2.3890867904    -0.9400585614     1.9114271920
Bq        -2.3869628170    -1.2009548634     1.3711230107
Bq        -2.3894407860    -0.8965758443     2.0014778888
Bq        -2.3866088214    -1.2444375804     1.2810723138
Bq        -2.3897947816    -0.8530931273     2.0915285857

1
2
3
4
5
6
7
8
9
10
11
12
13
14
15
16
17
18
19
20
21
22
23
24
25
26
27
28
29
30
31
32
33
34
35
36
37
38
39
40
41
42
43
44
45
46
47
48
49
50
51
52
53
54
55
56
57
58
59
60
61
62
63
64
65
66
67
68
69
70
71
72
73
74
75
76
77
78
79
80
81
82
83
84
85
86
87
88
89
90
91
92
93
94
95
96
97
98
99
100
101
102
103
104
105
106
107
108
109
110
111
112
113
114
115
116
117
118
119
120
121
122
123
124
125
126
127
128
129
130
131
132
133
134
135
136
137
138
139
140
141
142
143
144
145
146
147
148
149
150
151
152
153
154
155
156
157
158
159
160
161
162
163
164
165
166
167
168
169
170
171
172
173
174
175
176
177
178
179
180
181
182
183
184
185
186
187
188
189
190
191
192
193
194
195
196
197
198
199
200
201
202
203
204
205
206
207
208
209
210
211
212
213
214
215
216
217
218
219
220
221
222
223
224
225
226
227
228
229
230
231
232
233
234
235
236

