%nproc=8
%mem=1000MB
# rb3lyp/6-311+g** NMR geom=connectivity

Title

0 1
C    -4.0500558   -0.5771862    0.8136712
H    -5.0263804   -1.0082727    1.0024760
C    -3.9381552    0.6617804    0.2400876
H    -4.8252424    1.2338890   -0.0111295
C    -2.6768410    1.2433246    0.0057578
C    -1.4974121    0.5051527    0.2848253
C    -1.6508332   -0.7338728    0.9404026
H    -0.7713646   -1.2730967    1.2633753
C    -2.8898548   -1.2624035    1.1994307
H    -2.9683706   -2.2124563    1.7152676
C    -2.5773185    2.5963696   -0.4192930
H    -3.4870728    3.1412239   -0.6474055
C    -1.3741895    3.2147896   -0.4364030
H    -1.2997315    4.2742019   -0.6578144
C    -0.1719488    2.4994090   -0.1734588
C    -0.2043917    1.1018437    0.0192689
C     1.0513491    3.2042560   -0.0676222
H     1.0427344    4.2819499   -0.1896997
C     2.1942091    2.5487446    0.2579577
H     3.1168527    3.0912848    0.4334727
C     2.2216473    1.1336562    0.2934990
C     1.0486931    0.3945528    0.0302412
C     3.4483363    0.4614633    0.5573939
H     4.3095794    1.0606054    0.8334846
C     3.5427346   -0.8855926    0.4749463
H     4.4731467   -1.3939704    0.7038822
C     2.4490052   -1.6474447   -0.0196319
C     1.2150704   -1.0057258   -0.3013573
C     0.2531113   -1.7434440   -1.0216591
H    -0.6541356   -1.2535051   -1.3462847
C     0.4494193   -3.0628597   -1.3413779
H    -0.3083162   -3.5944309   -1.9054060
C     1.6251726   -3.7207967   -0.9552541
H     1.7670048   -4.7687404   -1.1927019
C     2.6109872   -3.0144177   -0.3183050
H     3.5525612   -3.4902813   -0.0646367
Bq         0.6299293127     0.6178238681     0.6855290615
Bq         0.7840024986     0.7031898223     0.1119664169
Bq         0.6042504484     0.6035962091     0.7811228356
Bq         0.8096813630     0.7174174813     0.0163726428
Bq         0.5785715841     0.5893685501     0.8767166097
Bq         0.8353602273     0.7316451404    -0.0792211312
Bq         0.7069659057     0.6605068452     0.3987477392
Bq         0.6775959908     0.7452618802     0.5080820529
Bq         0.7289537195     0.7737171983     0.3168945047
Bq         0.6519171265     0.7310342212     0.6036758270
Bq         0.7546325838     0.7879448573     0.2213007306
Bq         0.6262382622     0.7168065622     0.6992696011
Bq         0.7803114481     0.8021725163     0.1257069565
Bq         0.6005593978     0.7025789031     0.7948633752
Bq         0.8059903124     0.8164001754     0.0301131824
Bq         0.5748805335     0.6883512441     0.8904571493
Bq         0.8316691767     0.8306278344    -0.0654805917
Bq         0.7032748551     0.7594895393     0.4124882788
Bq         0.6739049403     0.8442445743     0.5218225924
Bq         0.7252626689     0.8726998923     0.3306350443
Bq         0.6482260760     0.8300169152     0.6174163665
Bq         0.7509415332     0.8869275513     0.2350412702
Bq         0.6225472116     0.8157892562     0.7130101406
Bq         0.7766203976     0.9011552104     0.1394474961
Bq         0.5968683473     0.8015615972     0.8086039147
Bq         0.8022992619     0.9153828694     0.0438537220
Bq         0.5711894830     0.7873339381     0.9041976888
Bq         0.8279781262     0.9296105284    -0.0517400521
Bq         0.6995838046     0.8584722333     0.4262288183
Bq         0.6702138897     0.9432272683     0.5355631320
Bq         0.7215716184     0.9716825864     0.3443755838
Bq         0.6445350254     0.9289996093     0.6311569061
Bq         0.7472504827     0.9859102454     0.2487818097
Bq         0.6188561611     0.9147719502     0.7267506802
Bq         0.7729293470     1.0001379044     0.1531880356
Bq         0.5931772968     0.9005442912     0.8223444543
Bq         0.7986082114     1.0143655634     0.0575942615
Bq         0.5674984324     0.8863166322     0.9179382284
Bq         0.8242870757     1.0285932225    -0.0379995126
Bq         0.6958927541     0.9574549273     0.4399693579
Bq         0.6665228392     1.0422099623     0.5493036716
Bq         0.7178805678     1.0706652804     0.3581161234
Bq         0.6408439749     1.0279823033     0.6448974457
Bq         0.7435594322     1.0848929394     0.2625223493
Bq         0.6151651106     1.0137546443     0.7404912197
Bq         0.7692382965     1.0991205984     0.1669285752
Bq         0.5894862462     0.9995269852     0.8360849938
Bq         0.7949171608     1.1133482575     0.0713348011
Bq         0.5638073819     0.9852993262     0.9316787679
Bq         0.8205960251     1.1275759165    -0.0242589730
Bq         0.6922017035     1.0564376214     0.4537098975
Bq         0.6628317887     1.1411926564     0.5630442111
Bq         0.7141895173     1.1696479744     0.3718566629
Bq         0.6371529243     1.1269649973     0.6586379852
Bq         0.7398683816     1.1838756335     0.2762628888
Bq         0.6114740600     1.1127373383     0.7542317593
Bq         0.7655472460     1.1981032925     0.1806691147
Bq         0.5857951957     1.0985096793     0.8498255334
Bq         0.7912261103     1.2123309515     0.0850753406
Bq         0.5601163314     1.0842820203     0.9454193075
Bq         0.8169049746     1.2265586105    -0.0105184335
Bq         0.6885106530     1.1554203154     0.4674504370
Bq         0.6591407381     1.2401753504     0.5767847507
Bq         0.7104984668     1.2686306685     0.3855972025
Bq         0.6334618738     1.2259476914     0.6723785248
Bq         0.7361773311     1.2828583275     0.2900034284
Bq         0.6077830095     1.2117200323     0.7679722989
Bq         0.7618561954     1.2970859865     0.1944096543
Bq         0.5821041452     1.1974923733     0.8635660730
Bq         0.7875350597     1.3113136455     0.0988158802
Bq         0.5564252808     1.1832647143     0.9591598471
Bq         0.8132139241     1.3255413046     0.0032221061
Bq         0.6848196025     1.2544030094     0.4811909766
Bq         0.6554496876     1.3391580444     0.5905252902
Bq         0.7068074162     1.3676133625     0.3993377420
Bq         0.6297708233     1.3249303854     0.6861190643
Bq         0.7324862806     1.3818410215     0.3037439680
Bq         0.6040919590     1.3107027264     0.7817128384
Bq         0.7581651449     1.3960686806     0.2081501939
Bq         0.5784130946     1.2964750674     0.8773066125
Bq         0.7838440092     1.4102963396     0.1125564198
Bq         0.5527342303     1.2822474083     0.9729003866
Bq         0.8095228735     1.4245239986     0.0169626457
Bq         0.6811285519     1.3533857035     0.4949315161
Bq         0.6517586371     1.4381407385     0.6042658298
Bq         0.7031163657     1.4665960565     0.4130782816
Bq         0.6260797727     1.4239130794     0.6998596039
Bq         0.7287952300     1.4808237156     0.3174845075
Bq         0.6004009084     1.4096854204     0.7954533780
Bq         0.7544740944     1.4950513746     0.2218907334
Bq         0.5747220441     1.3954577614     0.8910471521
Bq         0.7801529587     1.5092790336     0.1262969593
Bq         0.5490431798     1.3812301024     0.9866409262
Bq         0.8058318230     1.5235066926     0.0307031852
Bq         0.6774375014     1.4523683975     0.5086720557
Bq         0.6480675865     1.5371234325     0.6180063694
Bq         0.6994253152     1.5655787506     0.4268188212
Bq         0.6223887222     1.5228957735     0.7136001434
Bq         0.7251041795     1.5798064096     0.3312250471
Bq         0.5967098579     1.5086681145     0.8091939175
Bq         0.7507830438     1.5940340686     0.2356312730
Bq         0.5710309936     1.4944404554     0.9047876916
Bq         0.7764619081     1.6082617277     0.1400374989
Bq         0.5453521292     1.4802127964     1.0003814657
Bq         0.8021407725     1.6224893867     0.0444437248
Bq         0.6737464509     1.5513510915     0.5224125953
Bq         0.6443765360     1.6361061265     0.6317469089
Bq         0.6957342646     1.6645614446     0.4405593607
Bq         0.6186976717     1.6218784675     0.7273406830
Bq         0.7214131290     1.6787891036     0.3449655866
Bq         0.5930188073     1.6076508085     0.8229344571
Bq         0.7470919933     1.6930167627     0.2493718125
Bq         0.5673399430     1.5934231495     0.9185282312
Bq         0.7727708576     1.7072444217     0.1537780384
Bq         0.5416610787     1.5791954904     1.0141220053
Bq         0.7984497219     1.7214720807     0.0581842643
Bq         0.6700554003     1.6503337856     0.5361531348
Bq         0.6406854855     1.7350888206     0.6454874485
Bq         0.6920432141     1.7635441386     0.4542999003
Bq         0.6150066211     1.7208611616     0.7410812226
Bq         0.7177220784     1.7777717977     0.3587061262
Bq         0.5893277568     1.7066335025     0.8366749967
Bq         0.7434009427     1.7919994567     0.2631123521
Bq         0.5636488925     1.6924058435     0.9322687708
Bq         0.7690798071     1.8062271157     0.1675185780
Bq         0.5379700282     1.6781781845     1.0278625448
Bq         0.7947586714     1.8204547748     0.0719248039
Bq         0.6663643498     1.7493164796     0.5498936744
Bq         0.6369944349     1.8340715146     0.6592279880
Bq         0.6883521636     1.8625268327     0.4680404398
Bq         0.6113155706     1.8198438556     0.7548217621
Bq         0.7140310279     1.8767544917     0.3724466657
Bq         0.5856367063     1.8056161966     0.8504155362
Bq         0.7397098922     1.8909821507     0.2768528917
Bq         0.5599578420     1.7913885375     0.9460093103
Bq         0.7653887565     1.9052098098     0.1812591176
Bq         0.5342789776     1.7771608785     1.0416030844
Bq         0.7910676209     1.9194374688     0.0856653435
Bq         0.6626732992     1.8482991736     0.5636342139
Bq         0.6333033844     1.9330542087     0.6729685276
Bq         0.6846611130     1.9615095267     0.4817809794
Bq         0.6076245201     1.9188265496     0.7685623017
Bq         0.7103399774     1.9757371857     0.3861872053
Bq         0.5819456557     1.9045988906     0.8641560758
Bq         0.7360188417     1.9899648448     0.2905934312
Bq         0.5562667914     1.8903712316     0.9597498499
Bq         0.7616977060     2.0041925038     0.1949996571
Bq         0.5305879271     1.8761435725     1.0553436240
Bq         0.7873765703     2.0184201628     0.0994058830
Bq         0.6589822487     1.9472818677     0.5773747535
Bq         0.6296123339     2.0320369027     0.6867090671
Bq         0.6809700625     2.0604922207     0.4955215190
Bq         0.6039334695     2.0178092437     0.7823028412
Bq         0.7066489268     2.0747198798     0.3999277449
Bq         0.5782546052     2.0035815846     0.8778966153
Bq         0.7323277911     2.0889475388     0.3043339708
Bq         0.5525757409     1.9893539256     0.9734903894
Bq         0.7580066555     2.1031751978     0.2087401967
Bq         0.5268968766     1.9751262666     1.0690841635
Bq         0.7836855198     2.1174028569     0.1131464226
Bq         0.6552911982     2.0462645617     0.5911152931
Bq         0.6259212833     2.1310195967     0.7004496067
Bq         0.6772790120     2.1594749148     0.5092620585
Bq         0.6002424190     2.1167919377     0.7960433808
Bq         0.7029578763     2.1737025738     0.4136682844
Bq         0.5745635547     2.1025642787     0.8916371549
Bq         0.7286367406     2.1879302328     0.3180745103
Bq         0.5488846903     2.0883366196     0.9872309290
Bq         0.7543156049     2.2021578919     0.2224807362
Bq         0.5232058260     2.0741089606     1.0828247031
Bq         0.7799944693     2.2163855509     0.1268869621
Bq         0.6516001476     2.1452472558     0.6048558326
Bq         0.9070500601    -2.8181151051     0.0393654106
Bq         0.9584077888    -2.7896597870    -0.1518221376
Bq         0.8813711958    -2.8323427641     0.1349591846
Bq         0.9840866531    -2.7754321280    -0.2474159117
Bq         0.8556923315    -2.8465704231     0.2305529587
Bq         1.0097655174    -2.7612044690    -0.3430096858
Bq         0.8300134672    -2.8607980821     0.3261467328
Bq         1.0354443817    -2.7469768099    -0.4386034599
Bq         0.8043346028    -2.8750257412     0.4217405069
Bq         1.0611232461    -2.7327491509    -0.5341972340
Bq         0.9327289245    -2.8038874460    -0.0562283635
Bq         0.9033590096    -2.7191324110     0.0531059501
Bq         0.9547167382    -2.6906770930    -0.1380815981
Bq         0.8776801453    -2.7333600701     0.1486997242
Bq         0.9803956026    -2.6764494339    -0.2336753722
Bq         0.8520012810    -2.7475877291     0.2442934983
Bq         1.0060744669    -2.6622217749    -0.3292691463
Bq         0.8263224166    -2.7618153881     0.3398872724
Bq         1.0317533312    -2.6479941159    -0.4248629204
Bq         0.8006435523    -2.7760430471     0.4354810465
Bq         1.0574321955    -2.6337664569    -0.5204566945
Bq         0.9290378739    -2.7049047520    -0.0424878240
Bq         0.8996679591    -2.6201497170     0.0668464897
Bq         0.9510256877    -2.5916943989    -0.1243410585
Bq         0.8739890947    -2.6343773760     0.1624402638
Bq         0.9767045520    -2.5774667399    -0.2199348326
Bq         0.8483102304    -2.6486050350     0.2580340379
Bq         1.0023834164    -2.5632390809    -0.3155286067

1
2
3
4
5
6
7
8
9
10
11
12
13
14
15
16
17
18
19
20
21
22
23
24
25
26
27
28
29
30
31
32
33
34
35
36
37
38
39
40
41
42
43
44
45
46
47
48
49
50
51
52
53
54
55
56
57
58
59
60
61
62
63
64
65
66
67
68
69
70
71
72
73
74
75
76
77
78
79
80
81
82
83
84
85
86
87
88
89
90
91
92
93
94
95
96
97
98
99
100
101
102
103
104
105
106
107
108
109
110
111
112
113
114
115
116
117
118
119
120
121
122
123
124
125
126
127
128
129
130
131
132
133
134
135
136
137
138
139
140
141
142
143
144
145
146
147
148
149
150
151
152
153
154
155
156
157
158
159
160
161
162
163
164
165
166
167
168
169
170
171
172
173
174
175
176
177
178
179
180
181
182
183
184
185
186
187
188
189
190
191
192
193
194
195
196
197
198
199
200
201
202
203
204
205
206
207
208
209
210
211
212
213
214
215
216
217
218
219
220
221
222
223
224
225
226
227
228
229
230
231
232
233
234
235
236

