%nproc=8
%mem=1000MB
# rb3lyp/6-311+g** NMR geom=connectivity

Title

0 1
C    -4.0500558   -0.5771862    0.8136712
H    -5.0263804   -1.0082727    1.0024760
C    -3.9381552    0.6617804    0.2400876
H    -4.8252424    1.2338890   -0.0111295
C    -2.6768410    1.2433246    0.0057578
C    -1.4974121    0.5051527    0.2848253
C    -1.6508332   -0.7338728    0.9404026
H    -0.7713646   -1.2730967    1.2633753
C    -2.8898548   -1.2624035    1.1994307
H    -2.9683706   -2.2124563    1.7152676
C    -2.5773185    2.5963696   -0.4192930
H    -3.4870728    3.1412239   -0.6474055
C    -1.3741895    3.2147896   -0.4364030
H    -1.2997315    4.2742019   -0.6578144
C    -0.1719488    2.4994090   -0.1734588
C    -0.2043917    1.1018437    0.0192689
C     1.0513491    3.2042560   -0.0676222
H     1.0427344    4.2819499   -0.1896997
C     2.1942091    2.5487446    0.2579577
H     3.1168527    3.0912848    0.4334727
C     2.2216473    1.1336562    0.2934990
C     1.0486931    0.3945528    0.0302412
C     3.4483363    0.4614633    0.5573939
H     4.3095794    1.0606054    0.8334846
C     3.5427346   -0.8855926    0.4749463
H     4.4731467   -1.3939704    0.7038822
C     2.4490052   -1.6474447   -0.0196319
C     1.2150704   -1.0057258   -0.3013573
C     0.2531113   -1.7434440   -1.0216591
H    -0.6541356   -1.2535051   -1.3462847
C     0.4494193   -3.0628597   -1.3413779
H    -0.3083162   -3.5944309   -1.9054060
C     1.6251726   -3.7207967   -0.9552541
H     1.7670048   -4.7687404   -1.1927019
C     2.6109872   -3.0144177   -0.3183050
H     3.5525612   -3.4902813   -0.0646367
Bq         1.1315827945    -1.2913026366     0.7453602670
Bq         1.3883714377    -1.1490260463    -0.2105774739
Bq         1.2599771161    -1.2201643415     0.2673913966
Bq         1.2306072012    -1.1354093065     0.3767257102
Bq         1.2819649299    -1.1069539884     0.1855381620
Bq         1.2049283369    -1.1496369655     0.4723194843
Bq         1.3076437942    -1.0927263294     0.0899443879
Bq         1.1792494726    -1.1638646245     0.5679132584
Bq         1.3333226585    -1.0784986703    -0.0056493862
Bq         1.1535706082    -1.1780922835     0.6635070325
Bq         1.3590015228    -1.0642710113    -0.1012431603
Bq         1.1278917439    -1.1923199426     0.7591008066
Bq         1.3846803872    -1.0500433523    -0.1968369344
Bq         1.2562860655    -1.1211816474     0.2811319361
Bq         1.2269161507    -1.0364266124     0.3904662498
Bq         1.2782738793    -1.0079712944     0.1992787016
Bq         1.2012372864    -1.0506542714     0.4860600239
Bq         1.3039527436    -0.9937436353     0.1036849275
Bq         1.1755584220    -1.0648819305     0.5816537980
Bq         1.3296316080    -0.9795159763     0.0080911534
Bq         1.1498795577    -1.0791095895     0.6772475721
Bq         1.3553104723    -0.9652883173    -0.0875026207
Bq         1.1242006934    -1.0933372485     0.7728413461
Bq         1.3809893366    -0.9510606583    -0.1830963948
Bq         1.2525950150    -1.0221989534     0.2948724757
Bq         1.2232251001    -0.9374439184     0.4042067893
Bq         1.2745828288    -0.9089886003     0.2130192411
Bq         1.1975462358    -0.9516715774     0.4998005634
Bq         1.3002616931    -0.8947609413     0.1174254670
Bq         1.1718673715    -0.9658992364     0.5953943375
Bq         1.3259405574    -0.8805332823     0.0218316929
Bq         1.1461885072    -0.9801268955     0.6909881116
Bq         1.3516194218    -0.8663056232    -0.0737620811
Bq         1.1205096429    -0.9943545545     0.7865818857
Bq         1.3772982861    -0.8520779642    -0.1693558552
Bq         1.2489039645    -0.9232162594     0.3086130152
Bq         1.2195340496    -0.8384612243     0.4179473289
Bq         1.2708917783    -0.8100059063     0.2267597807
Bq         1.1938551853    -0.8526888834     0.5135411030
Bq         1.2965706426    -0.7957782473     0.1311660066
Bq         1.1681763210    -0.8669165424     0.6091348771
Bq         1.3222495069    -0.7815505882     0.0355722325
Bq         1.1424974566    -0.8811442014     0.7047286512
Bq         1.3479283712    -0.7673229292    -0.0600215416
Bq         1.1168185923    -0.8953718605     0.8003224253
Bq         1.3736072355    -0.7530952702    -0.1556153157
Bq         1.2452129139    -0.8242335653     0.3223535548
Bq         1.2158429991    -0.7394785303     0.4316878684
Bq         1.2672007277    -0.7110232123     0.2405003203
Bq         1.1901641348    -0.7537061893     0.5272816425
Bq         1.2928795920    -0.6967955532     0.1449065462
Bq         1.1644852704    -0.7679338484     0.6228754166
Bq         1.3185584564    -0.6825678942     0.0493127721
Bq         1.1388064061    -0.7821615074     0.7184691907
Bq         1.3442373207    -0.6683402352    -0.0462810020
Bq         1.1131275418    -0.7963891664     0.8140629648
Bq         1.3699161850    -0.6541125761    -0.1418747761
Bq         1.2415218634    -0.7252508713     0.3360940943
Bq         1.2121519485    -0.6404958363     0.4454284080
Bq         1.2635096772    -0.6120405182     0.2542408598
Bq         1.1864730842    -0.6547234953     0.5410221821
Bq         1.2891885415    -0.5978128592     0.1586470857
Bq         1.1607942199    -0.6689511543     0.6366159562
Bq         1.3148674058    -0.5835852002     0.0630533116
Bq         1.1351153556    -0.6831788134     0.7322097303
Bq         1.3405462702    -0.5693575411    -0.0325404625
Bq         1.1094364912    -0.6974064724     0.8278035044
Bq         1.3662251345    -0.5551298821    -0.1281342366
Bq         1.2378308129    -0.6262681772     0.3498346339
Bq         1.2084608980    -0.5415131422     0.4591689476
Bq         1.2598186266    -0.5130578242     0.2679813994
Bq         1.1827820337    -0.5557408013     0.5547627217
Bq         1.2854974910    -0.4988301652     0.1723876253
Bq         1.1571031694    -0.5699684603     0.6503564958
Bq         1.3111763553    -0.4846025061     0.0767938512
Bq         1.1314243050    -0.5841961193     0.7459502698
Bq         1.3368552196    -0.4703748471    -0.0187999229
Bq         1.1057454407    -0.5984237784     0.8415440439
Bq         1.3625340839    -0.4561471881    -0.1143936970
Bq         1.2341397623    -0.5272854832     0.3635751735
Bq         1.2047698475    -0.4425304482     0.4729094871
Bq         1.2561275761    -0.4140751301     0.2817219389
Bq         1.1790909831    -0.4567581072     0.5685032612
Bq         1.2818064404    -0.3998474711     0.1861281648
Bq         1.1534121188    -0.4709857663     0.6640970353
Bq         1.3074853048    -0.3856198121     0.0905343907
Bq         1.1277332545    -0.4852134253     0.7596908094
Bq         1.3331641691    -0.3713921531    -0.0050593834
Bq         1.1020543902    -0.4994410843     0.8552845835
Bq         1.3588430334    -0.3571644940    -0.1006531574
Bq         1.2304487118    -0.4283027892     0.3773157130
Bq         1.2010787969    -0.3435477542     0.4866500267
Bq         1.2524365256    -0.3150924361     0.2954624785
Bq         1.1753999326    -0.3577754132     0.5822438008
Bq         1.2781153899    -0.3008647771     0.1998687044
Bq         1.1497210683    -0.3720030722     0.6778375749
Bq         1.3037942542    -0.2866371181     0.1042749303
Bq         1.1240422040    -0.3862307313     0.7734313490
Bq         1.3294731185    -0.2724094590     0.0086811562
Bq         1.0983633396    -0.4004583903     0.8690251231
Bq         1.3551519829    -0.2581818000    -0.0869126179
Bq         1.2267576613    -0.3293200951     0.3910562526
Bq         1.1973877464    -0.2445650601     0.5003905662
Bq         1.2487454750    -0.2161097421     0.3092030180
Bq         1.1717088821    -0.2587927192     0.5959843403
Bq         1.2744243394    -0.2018820830     0.2136092440
Bq         1.1460300178    -0.2730203782     0.6915781144
Bq         1.3001032037    -0.1876544240     0.1180154699
Bq         1.1203511534    -0.2872480372     0.7871718885
Bq         1.3257820680    -0.1734267650     0.0224216958
Bq         1.0946722891    -0.3014756962     0.8827656626
Bq         1.3514609323    -0.1591991060    -0.0731720783
Bq         1.2230666107    -0.2303374011     0.4047967921
Bq         1.1936966959    -0.1455823661     0.5141311058
Bq         1.2450544245    -0.1171270480     0.3229435576
Bq         1.1680178315    -0.1598100251     0.6097248799
Bq         1.2707332888    -0.1028993890     0.2273497835
Bq         1.1423389672    -0.1740376842     0.7053186540
Bq         1.2964121532    -0.0886717300     0.1317560094
Bq         1.1166601029    -0.1882653432     0.8009124281
Bq         1.3220910175    -0.0744440710     0.0361622353
Bq         1.0909812386    -0.2024930022     0.8965062022
Bq         1.3477698818    -0.0602164119    -0.0594315388
Bq         1.2193755602    -0.1313547071     0.4185373317
Bq         1.1900056453    -0.0465996721     0.5278716454
Bq         1.2413633740    -0.0181443540     0.3366840972
Bq         1.1643267810    -0.0608273311     0.6234654195
Bq         1.2670422383    -0.0039166950     0.2410903231
Bq         1.1386479167    -0.0750549901     0.7190591935
Bq         1.2927211026     0.0103109641     0.1454965490
Bq         1.1129690524    -0.0892826491     0.8146529676
Bq         1.3183999669     0.0245386231     0.0499027749
Bq         1.0872901880    -0.1035103082     0.9102467417
Bq         1.3440788313     0.0387662821    -0.0456909992
Bq         1.2156845096    -0.0323720130     0.4322778713
Bq         1.1863145948     0.0523830220     0.5416121849
Bq         1.2376723234     0.0808383400     0.3504246367
Bq         1.1606357305     0.0381553629     0.6372059590
Bq         1.2633511878     0.0950659991     0.2548308626
Bq         1.1349568661     0.0239277039     0.7327997331
Bq         1.2890300521     0.1092936581     0.1592370885
Bq         1.1092780018     0.0097000449     0.8283935072
Bq         1.3147089164     0.1235213171     0.0636433144
Bq         1.0835991375    -0.0045276141     0.9239872813
Bq         1.3403877807     0.1377489761    -0.0319504597
Bq         1.2119934591     0.0666106810     0.4460184108
Bq         1.1826235443     0.1513657160     0.5553527245
Bq         1.2339812729     0.1798210341     0.3641651763
Bq         1.1569446799     0.1371380570     0.6509464986
Bq         1.2596601372     0.1940486931     0.2685714022
Bq         1.1312658156     0.1229103980     0.7465402727
Bq         1.2853390015     0.2082763521     0.1729776281
Bq         1.1055869513     0.1086827389     0.8421340468
Bq         1.3110178659     0.2225040112     0.0773838540
Bq         1.0799080870     0.0944550799     0.9377278209
Bq         1.3366967302     0.2367316702    -0.0182099201
Bq         1.2083024086     0.1655933750     0.4597589504
Bq         1.1789324937     0.2503484100     0.5690932640
Bq         1.2302902224     0.2788037281     0.3779057158
Bq         1.1532536294     0.2361207510     0.6646870381
Bq         1.2559690867     0.2930313871     0.2823119417
Bq         1.1275747651     0.2218930920     0.7602808122
Bq         1.2816479510     0.3072590462     0.1867181677
Bq         1.1018959008     0.2076654330     0.8558745863
Bq         1.3073268153     0.3214867052     0.0911243936
Bq         1.0762170364     0.1934377739     0.9514683604
Bq         1.3330056797     0.3357143642    -0.0044693805
Bq         1.2046113580     0.2645760691     0.4734994899
Bq         1.1752414432     0.3493311041     0.5828338036
Bq         1.2265991718     0.3777864221     0.3916462554
Bq         1.1495625789     0.3351034451     0.6784275777
Bq         1.2522780362     0.3920140812     0.2960524813
Bq         1.1238837145     0.3208757860     0.7740213518
Bq         1.2779569005     0.4062417402     0.2004587072
Bq         1.0982048502     0.3066481270     0.8696151259
Bq         1.3036357648     0.4204693992     0.1048649331
Bq         1.0725259859     0.2924204680     0.9652089000
Bq         1.3293146291     0.4346970583     0.0092711590
Bq         1.2009203075     0.3635587631     0.4872400295
Bq         1.1715503926     0.4483137981     0.5965743431
Bq         1.2229081213     0.4767691162     0.4053867950
Bq         1.1458715283     0.4340861391     0.6921681172
Bq         1.2485869856     0.4909967752     0.3097930209
Bq         1.1201926640     0.4198584801     0.7877618913
Bq         1.2742658499     0.5052244342     0.2141992468
Bq         1.0945137997     0.4056308210     0.8833556654
Bq         1.2999447143     0.5194520933     0.1186054727
Bq         1.0688349354     0.3914031620     0.9789494395
Bq         1.3256235786     0.5336797523     0.0230116986
Bq         1.1972292570     0.4625414571     0.5009805691
Bq         1.1678593421     0.5472964922     0.6103148827
Bq         1.2192170708     0.5757518102     0.4191273345
Bq         1.1421804778     0.5330688331     0.7059086568
Bq         1.2448959351     0.5899794692     0.3235335604
Bq         1.1165016135     0.5188411741     0.8015024309
Bq         1.2705747994     0.6042071283     0.2279397863
Bq         1.0908227491     0.5046135151     0.8970962050
Bq         1.2962536637     0.6184347873     0.1323460122
Bq         1.0651438848     0.4903858560     0.9926899791
Bq         1.3219325280     0.6326624463     0.0367522381

1
2
3
4
5
6
7
8
9
10
11
12
13
14
15
16
17
18
19
20
21
22
23
24
25
26
27
28
29
30
31
32
33
34
35
36
37
38
39
40
41
42
43
44
45
46
47
48
49
50
51
52
53
54
55
56
57
58
59
60
61
62
63
64
65
66
67
68
69
70
71
72
73
74
75
76
77
78
79
80
81
82
83
84
85
86
87
88
89
90
91
92
93
94
95
96
97
98
99
100
101
102
103
104
105
106
107
108
109
110
111
112
113
114
115
116
117
118
119
120
121
122
123
124
125
126
127
128
129
130
131
132
133
134
135
136
137
138
139
140
141
142
143
144
145
146
147
148
149
150
151
152
153
154
155
156
157
158
159
160
161
162
163
164
165
166
167
168
169
170
171
172
173
174
175
176
177
178
179
180
181
182
183
184
185
186
187
188
189
190
191
192
193
194
195
196
197
198
199
200
201
202
203
204
205
206
207
208
209
210
211
212
213
214
215
216
217
218
219
220
221
222
223
224
225
226
227
228
229
230
231
232
233
234
235
236

