%nproc=8
%mem=1000MB
# rb3lyp/6-311+g** NMR geom=connectivity

Title

0 1
C    -4.0500558   -0.5771862    0.8136712
H    -5.0263804   -1.0082727    1.0024760
C    -3.9381552    0.6617804    0.2400876
H    -4.8252424    1.2338890   -0.0111295
C    -2.6768410    1.2433246    0.0057578
C    -1.4974121    0.5051527    0.2848253
C    -1.6508332   -0.7338728    0.9404026
H    -0.7713646   -1.2730967    1.2633753
C    -2.8898548   -1.2624035    1.1994307
H    -2.9683706   -2.2124563    1.7152676
C    -2.5773185    2.5963696   -0.4192930
H    -3.4870728    3.1412239   -0.6474055
C    -1.3741895    3.2147896   -0.4364030
H    -1.2997315    4.2742019   -0.6578144
C    -0.1719488    2.4994090   -0.1734588
C    -0.2043917    1.1018437    0.0192689
C     1.0513491    3.2042560   -0.0676222
H     1.0427344    4.2819499   -0.1896997
C     2.1942091    2.5487446    0.2579577
H     3.1168527    3.0912848    0.4334727
C     2.2216473    1.1336562    0.2934990
C     1.0486931    0.3945528    0.0302412
C     3.4483363    0.4614633    0.5573939
H     4.3095794    1.0606054    0.8334846
C     3.5427346   -0.8855926    0.4749463
H     4.4731467   -1.3939704    0.7038822
C     2.4490052   -1.6474447   -0.0196319
C     1.2150704   -1.0057258   -0.3013573
C     0.2531113   -1.7434440   -1.0216591
H    -0.6541356   -1.2535051   -1.3462847
C     0.4494193   -3.0628597   -1.3413779
H    -0.3083162   -3.5944309   -1.9054060
C     1.6251726   -3.7207967   -0.9552541
H     1.7670048   -4.7687404   -1.1927019
C     2.6109872   -3.0144177   -0.3183050
H     3.5525612   -3.4902813   -0.0646367
Bq         2.1336218426     0.5472964922     0.8697427006
Bq         2.1849795712     0.5757518102     0.6785551524
Bq         2.1079429783     0.5330688331     0.9653364747
Bq         2.2106584355     0.5899794692     0.5829613783
Bq         2.0822641139     0.5188411741     1.0609302488
Bq         2.2363372999     0.6042071283     0.4873676042
Bq         2.0565852496     0.5046135151     1.1565240229
Bq         2.2620161642     0.6184347873     0.3917738301
Bq         2.0309063853     0.4903858560     1.2521177970
Bq         2.2876950285     0.6326624463     0.2961800560
Bq         2.1593007069     0.5615241512     0.7741489265
Bq         2.1299307920     0.6462791862     0.8834832402
Bq         2.1812885207     0.6747345042     0.6922956920
Bq         2.1042519277     0.6320515272     0.9790770143
Bq         2.2069673850     0.6889621633     0.5967019179
Bq         2.0785730634     0.6178238681     1.0746707883
Bq         2.2326462493     0.7031898223     0.5011081438
Bq         2.0528941991     0.6035962091     1.1702645624
Bq         2.2583251137     0.7174174813     0.4055143697
Bq         2.0272153348     0.5893685501     1.2658583365
Bq         2.2840039780     0.7316451404     0.3099205956
Bq         2.1556096564     0.6605068452     0.7878894661
Bq         2.1262397415     0.7452618802     0.8972237797
Bq         2.1775974702     0.7737171983     0.7060362315
Bq         2.1005608772     0.7310342212     0.9928175538
Bq         2.2032763345     0.7879448573     0.6104424574
Bq         2.0748820129     0.7168065622     1.0884113279
Bq         2.2289551988     0.8021725163     0.5148486833
Bq         2.0492031485     0.7025789031     1.1840051020
Bq         2.2546340631     0.8164001754     0.4192549092
Bq         2.0235242842     0.6883512441     1.2795988761
Bq         2.2803129274     0.8306278344     0.3236611351
Bq         2.1519186058     0.7594895393     0.8016300056
Bq         2.1225486910     0.8442445743     0.9109643193
Bq         2.1739064196     0.8726998923     0.7197767711
Bq         2.0968698267     0.8300169152     1.0065580934
Bq         2.1995852839     0.8869275513     0.6241829970
Bq         2.0711909623     0.8157892562     1.1021518675
Bq         2.2252641483     0.9011552104     0.5285892229
Bq         2.0455120980     0.8015615972     1.1977456416
Bq         2.2509430126     0.9153828694     0.4329954488
Bq         2.0198332337     0.7873339381     1.2933394157
Bq         2.2766218769     0.9296105284     0.3374016747
Bq         2.1482275553     0.8584722333     0.8153705452
Bq         2.1188576404     0.9432272683     0.9247048588
Bq         2.1702153691     0.9716825864     0.7335173106
Bq         2.0931787761     0.9289996093     1.0202986329
Bq         2.1958942334     0.9859102454     0.6379235365
Bq         2.0674999118     0.9147719502     1.1158924070
Bq         2.2215730977     1.0001379044     0.5423297625
Bq         2.0418210475     0.9005442912     1.2114861811
Bq         2.2472519621     1.0143655634     0.4467359884
Bq         2.0161421831     0.8863166322     1.3070799552
Bq         2.2729308264     1.0285932225     0.3511422143
Bq         2.1445365048     0.9574549273     0.8291110847
Bq         2.1151665899     1.0422099623     0.9384453984
Bq         2.1665243185     1.0706652804     0.7472578502
Bq         2.0894877256     1.0279823033     1.0340391725
Bq         2.1922031829     1.0848929394     0.6516640761
Bq         2.0638088613     1.0137546443     1.1296329466
Bq         2.2178820472     1.0991205984     0.5560703020
Bq         2.0381299969     0.9995269852     1.2252267207
Bq         2.2435609115     1.1133482575     0.4604765279
Bq         2.0124511326     0.9852993262     1.3208204948
Bq         2.2692397758     1.1275759165     0.3648827538
Bq         2.1408454542     1.0564376214     0.8428516243
Bq         2.1114755394     1.1411926564     0.9521859380
Bq         2.1628332680     1.1696479744     0.7609983898
Bq         2.0857966750     1.1269649973     1.0477797120
Bq         2.1885121323     1.1838756335     0.6654046157
Bq         2.0601178107     1.1127373383     1.1433734861
Bq         2.2141909967     1.1981032925     0.5698108416
Bq         2.0344389464     1.0985096793     1.2389672602
Bq         2.2398698610     1.2123309515     0.4742170675
Bq         2.0087600821     1.0842820203     1.3345610343
Bq         2.2655487253     1.2265586105     0.3786232934
Bq         2.1371544037     1.1554203154     0.8565921639
Bq         2.1077844888     1.2401753504     0.9659264775
Bq         2.1591422175     1.2686306685     0.7747389293
Bq         2.0821056245     1.2259476914     1.0615202516
Bq         2.1848210818     1.2828583275     0.6791451552
Bq         2.0564267602     1.2117200323     1.1571140257
Bq         2.2104999461     1.2970859865     0.5835513811
Bq         2.0307478959     1.1974923733     1.2527077998
Bq         2.2361788104     1.3113136455     0.4879576070
Bq         2.0050690315     1.1832647143     1.3483015739
Bq         2.2618576748     1.3255413046     0.3923638329
Bq         2.1334633532     1.2544030094     0.8703327034
Bq         2.1040934383     1.3391580444     0.9796670171
Bq         2.1554511669     1.3676133625     0.7884794689
Bq         2.0784145740     1.3249303854     1.0752607912
Bq         2.1811300313     1.3818410215     0.6928856948
Bq         2.0527357097     1.3107027264     1.1708545653
Bq         2.2068088956     1.3960686806     0.5972919207
Bq         2.0270568453     1.2964750674     1.2664483394
Bq         2.2324877599     1.4102963396     0.5016981466
Bq         2.0013779810     1.2822474083     1.3620421134
Bq         2.2581666242     1.4245239986     0.4061043725
Bq         2.1297723026     1.3533857035     0.8840732430
Bq         2.1004023878     1.4381407385     0.9934075566
Bq         2.1517601164     1.4665960565     0.8022200084
Bq         2.0747235234     1.4239130794     1.0890013307
Bq         2.1774389807     1.4808237156     0.7066262343
Bq         2.0490446591     1.4096854204     1.1845951048
Bq         2.2031178451     1.4950513746     0.6110324602
Bq         2.0233657948     1.3954577614     1.2801888789
Bq         2.2287967094     1.5092790336     0.5154386862
Bq         1.9976869305     1.3812301024     1.3757826530
Bq         2.2544755737     1.5235066926     0.4198449121
Bq         2.1260812521     1.4523683975     0.8978137825
Bq         2.0967113372     1.5371234325     1.0071480962
Bq         2.1480690659     1.5655787506     0.8159605480
Bq         2.0710324729     1.5228957735     1.1027418703
Bq         2.1737479302     1.5798064096     0.7203667739
Bq         2.0453536086     1.5086681145     1.1983356444
Bq         2.1994267945     1.5940340686     0.6247729998
Bq         2.0196747443     1.4944404554     1.2939294185
Bq         2.2251056588     1.6082617277     0.5291792257
Bq         1.9939958799     1.4802127964     1.3895231926
Bq         2.2507845232     1.6224893867     0.4335854516
Bq         2.1223902015     1.5513510915     0.9115543221
Bq         2.0930202867     1.6361061265     1.0208886357
Bq         2.1443780153     1.6645614446     0.8297010876
Bq         2.0673414224     1.6218784675     1.1164824098
Bq         2.1700568797     1.6787891036     0.7341073135
Bq         2.0416625580     1.6076508085     1.2120761839
Bq         2.1957357440     1.6930167627     0.6385135394
Bq         2.0159836937     1.5934231495     1.3076699580
Bq         2.2214146083     1.7072444217     0.5429197653
Bq         1.9903048294     1.5791954904     1.4032637321
Bq         2.2470934726     1.7214720807     0.4473259912
Bq         2.1186991510     1.6503337856     0.9252948617
Bq         2.0893292362     1.7350888206     1.0346291753
Bq         2.1406869648     1.7635441386     0.8434416271
Bq         2.0636503718     1.7208611616     1.1302229494
Bq         2.1663658291     1.7777717977     0.7478478530
Bq         2.0379715075     1.7066335025     1.2258167235
Bq         2.1920446934     1.7919994567     0.6522540789
Bq         2.0122926432     1.6924058435     1.3214104976
Bq         2.2177235578     1.8062271157     0.5566603048
Bq         1.9866137789     1.6781781845     1.4170042717
Bq         2.2434024221     1.8204547748     0.4610665307
Bq         2.1150081005     1.7493164796     0.9390354012
Bq         2.0856381856     1.8340715146     1.0483697149
Bq         2.1369959143     1.8625268327     0.8571821667
Bq         2.0599593213     1.8198438556     1.1439634890
Bq         2.1626747786     1.8767544917     0.7615883926
Bq         2.0342804570     1.8056161966     1.2395572631
Bq         2.1883536429     1.8909821507     0.6659946185
Bq         2.0086015927     1.7913885375     1.3351510371
Bq         2.2140325072     1.9052098098     0.5704008444
Bq         1.9829227283     1.7771608785     1.4307448112
Bq         2.2397113716     1.9194374688     0.4748070703
Bq         2.1113170499     1.8482991736     0.9527759408
Bq         2.0819471351     1.9330542087     1.0621102544
Bq         2.1333048637     1.9615095267     0.8709227062
Bq         2.0562682708     1.9188265496     1.1577040285
Bq         2.1589837281     1.9757371857     0.7753289321
Bq         2.0305894064     1.9045988906     1.2532978026
Bq         2.1846625924     1.9899648448     0.6797351580
Bq         2.0049105421     1.8903712316     1.3488915767
Bq         2.2103414567     2.0041925038     0.5841413839
Bq         1.9792316778     1.8761435725     1.4444853508
Bq         2.2360203210     2.0184201628     0.4885476099
Bq         2.1076259994     1.9472818677     0.9665164803
Bq         2.0782560845     2.0320369027     1.0758507940
Bq         2.1296138132     2.0604922207     0.8846632458
Bq         2.0525772202     2.0178092437     1.1714445681
Bq         2.1552926775     2.0747198798     0.7890694717
Bq         2.0268983559     2.0035815846     1.2670383422
Bq         2.1809715418     2.0889475388     0.6934756976
Bq         2.0012194916     1.9893539256     1.3626321163
Bq         2.2066504062     2.1031751978     0.5978819235
Bq         1.9755406273     1.9751262666     1.4582258904
Bq         2.2323292705     2.1174028569     0.5022881494
Bq         2.1039349489     2.0462645617     0.9802570199
Bq         2.0745650340     2.1310195967     1.0895913335
Bq         2.1259227627     2.1594749148     0.8984037854
Bq         2.0488861697     2.1167919377     1.1851851076
Bq         2.1516016270     2.1737025738     0.8028100113
Bq         2.0232073054     2.1025642787     1.2807788817
Bq         2.1772804913     2.1879302328     0.7072162372
Bq         1.9975284410     2.0883366196     1.3763726558
Bq         2.2029593556     2.2021578919     0.6116224631
Bq         1.9718495767     2.0741089606     1.4719664299
Bq         2.2286382199     2.2163855509     0.5160286890
Bq         2.1002438983     2.1452472558     0.9939975594
Bq         2.3556938108    -2.8181151051     0.4285071374
Bq         2.4070515395    -2.7896597870     0.2373195892
Bq         2.3300149465    -2.8323427641     0.5241009115
Bq         2.4327304038    -2.7754321280     0.1417258151
Bq         2.3043360822    -2.8465704231     0.6196946856
Bq         2.4584092681    -2.7612044690     0.0461320410
Bq         2.2786572179    -2.8607980821     0.7152884597
Bq         2.4840881324    -2.7469768099    -0.0494617331
Bq         2.2529783535    -2.8750257412     0.8108822338
Bq         2.5097669968    -2.7327491509    -0.1450555072
Bq         2.3813726752    -2.8038874460     0.3329133633
Bq         2.3520027603    -2.7191324110     0.4422476769
Bq         2.4033604889    -2.6906770930     0.2510601288

1
2
3
4
5
6
7
8
9
10
11
12
13
14
15
16
17
18
19
20
21
22
23
24
25
26
27
28
29
30
31
32
33
34
35
36
37
38
39
40
41
42
43
44
45
46
47
48
49
50
51
52
53
54
55
56
57
58
59
60
61
62
63
64
65
66
67
68
69
70
71
72
73
74
75
76
77
78
79
80
81
82
83
84
85
86
87
88
89
90
91
92
93
94
95
96
97
98
99
100
101
102
103
104
105
106
107
108
109
110
111
112
113
114
115
116
117
118
119
120
121
122
123
124
125
126
127
128
129
130
131
132
133
134
135
136
137
138
139
140
141
142
143
144
145
146
147
148
149
150
151
152
153
154
155
156
157
158
159
160
161
162
163
164
165
166
167
168
169
170
171
172
173
174
175
176
177
178
179
180
181
182
183
184
185
186
187
188
189
190
191
192
193
194
195
196
197
198
199
200
201
202
203
204
205
206
207
208
209
210
211
212
213
214
215
216
217
218
219
220
221
222
223
224
225
226
227
228
229
230
231
232
233
234
235
236

