%nproc=8
%mem=1000MB
# rb3lyp/6-311+g** NMR geom=connectivity

Title

0 1
C    -4.0500558   -0.5771862    0.8136712
H    -5.0263804   -1.0082727    1.0024760
C    -3.9381552    0.6617804    0.2400876
H    -4.8252424    1.2338890   -0.0111295
C    -2.6768410    1.2433246    0.0057578
C    -1.4974121    0.5051527    0.2848253
C    -1.6508332   -0.7338728    0.9404026
H    -0.7713646   -1.2730967    1.2633753
C    -2.8898548   -1.2624035    1.1994307
H    -2.9683706   -2.2124563    1.7152676
C    -2.5773185    2.5963696   -0.4192930
H    -3.4870728    3.1412239   -0.6474055
C    -1.3741895    3.2147896   -0.4364030
H    -1.2997315    4.2742019   -0.6578144
C    -0.1719488    2.4994090   -0.1734588
C    -0.2043917    1.1018437    0.0192689
C     1.0513491    3.2042560   -0.0676222
H     1.0427344    4.2819499   -0.1896997
C     2.1942091    2.5487446    0.2579577
H     3.1168527    3.0912848    0.4334727
C     2.2216473    1.1336562    0.2934990
C     1.0486931    0.3945528    0.0302412
C     3.4483363    0.4614633    0.5573939
H     4.3095794    1.0606054    0.8334846
C     3.5427346   -0.8855926    0.4749463
H     4.4731467   -1.3939704    0.7038822
C     2.4490052   -1.6474447   -0.0196319
C     1.2150704   -1.0057258   -0.3013573
C     0.2531113   -1.7434440   -1.0216591
H    -0.6541356   -1.2535051   -1.3462847
C     0.4494193   -3.0628597   -1.3413779
H    -0.3083162   -3.5944309   -1.9054060
C     1.6251726   -3.7207967   -0.9552541
H     1.7670048   -4.7687404   -1.1927019
C     2.6109872   -3.0144177   -0.3183050
H     3.5525612   -3.4902813   -0.0646367
Bq         3.3452959550    -0.3862307313     1.3701153301
Bq         3.5507268696    -0.2724094590     0.6053651374
Bq         3.3196170907    -0.4004583903     1.4657091042
Bq         3.5764057339    -0.2581818000     0.5097713633
Bq         3.4480114123    -0.3293200951     0.9877402337
Bq         3.4186414975    -0.2445650601     1.0970745474
Bq         3.4699992261    -0.2161097421     0.9058869992
Bq         3.3929626331    -0.2587927192     1.1926683215
Bq         3.4956780904    -0.2018820830     0.8102932251
Bq         3.3672837688    -0.2730203782     1.2882620956
Bq         3.5213569548    -0.1876544240     0.7146994510
Bq         3.3416049045    -0.2872480372     1.3838558697
Bq         3.5470358191    -0.1734267650     0.6191056769
Bq         3.3159260402    -0.3014756962     1.4794496438
Bq         3.5727146834    -0.1591991060     0.5235119028
Bq         3.4443203618    -0.2303374011     1.0014807733
Bq         3.4149504469    -0.1455823661     1.1108150869
Bq         3.4663081756    -0.1171270480     0.9196275388
Bq         3.3892715826    -0.1598100251     1.2064088610
Bq         3.4919870399    -0.1028993890     0.8240337647
Bq         3.3635927183    -0.1740376842     1.3020026351
Bq         3.5176659042    -0.0886717300     0.7284399906
Bq         3.3379138540    -0.1882653432     1.3975964092
Bq         3.5433447685    -0.0744440710     0.6328462165
Bq         3.3122349896    -0.2024930022     1.4931901833
Bq         3.5690236329    -0.0602164119     0.5372524424
Bq         3.4406293113    -0.1313547071     1.0152213128
Bq         3.4112593964    -0.0465996721     1.1245556265
Bq         3.4626171250    -0.0181443540     0.9333680783
Bq         3.3855805321    -0.0608273311     1.2201494006
Bq         3.4882959894    -0.0039166950     0.8377743042
Bq         3.3599016678    -0.0750549901     1.3157431747
Bq         3.5139748537     0.0103109641     0.7421805301
Bq         3.3342228034    -0.0892826491     1.4113369488
Bq         3.5396537180     0.0245386231     0.6465867560
Bq         3.3085439391    -0.1035103082     1.5069307229
Bq         3.5653325823     0.0387662821     0.5509929819
Bq         3.4369382607    -0.0323720130     1.0289618524
Bq         3.4075683459     0.0523830220     1.1382961661
Bq         3.4589260745     0.0808383400     0.9471086179
Bq         3.3818894815     0.0381553629     1.2338899402
Bq         3.4846049388     0.0950659991     0.8515148438
Bq         3.3562106172     0.0239277039     1.3294837143
Bq         3.5102838032     0.1092936581     0.7559210697
Bq         3.3305317529     0.0097000449     1.4250774883
Bq         3.5359626675     0.1235213171     0.6603272956
Bq         3.3048528886    -0.0045276141     1.5206712624
Bq         3.5616415318     0.1377489761     0.5647335215
Bq         3.4332472102     0.0666106810     1.0427023920
Bq         3.4038772953     0.1513657160     1.1520367056
Bq         3.4552350240     0.1798210341     0.9608491574
Bq         3.3781984310     0.1371380570     1.2476304797
Bq         3.4809138883     0.1940486931     0.8652553833
Bq         3.3525195667     0.1229103980     1.3432242538
Bq         3.5065927526     0.2082763521     0.7696616092
Bq         3.3268407024     0.1086827389     1.4388180279
Bq         3.5322716169     0.2225040112     0.6740678351
Bq         3.3011618380     0.0944550799     1.5344118020
Bq         3.5579504813     0.2367316702     0.5784740611
Bq         3.4295561596     0.1655933750     1.0564429315
Bq         3.4001862448     0.2503484100     1.1657772452
Bq         3.4515439734     0.2788037281     0.9745896970
Bq         3.3745073805     0.2361207510     1.2613710193
Bq         3.4772228378     0.2930313871     0.8789959229
Bq         3.3488285161     0.2218930920     1.3569647934
Bq         3.5029017021     0.3072590462     0.7834021488
Bq         3.3231496518     0.2076654330     1.4525585675
Bq         3.5285805664     0.3214867052     0.6878083747
Bq         3.2974707875     0.1934377739     1.5481523416
Bq         3.5542594307     0.3357143642     0.5922146006
Bq         3.4258651091     0.2645760691     1.0701834711
Bq         3.3964951943     0.3493311041     1.1795177847
Bq         3.4478529229     0.3777864221     0.9883302365
Bq         3.3708163299     0.3351034451     1.2751115588
Bq         3.4735317872     0.3920140812     0.8927364625
Bq         3.3451374656     0.3208757860     1.3707053329
Bq         3.4992106515     0.4062417402     0.7971426884
Bq         3.3194586013     0.3066481270     1.4662991070
Bq         3.5248895159     0.4204693992     0.7015489143
Bq         3.2937797370     0.2924204680     1.5618928811
Bq         3.5505683802     0.4346970583     0.6059551402
Bq         3.4221740586     0.3635587631     1.0839240106
Bq         3.3928041437     0.4483137981     1.1932583243
Bq         3.4441618724     0.4767691162     1.0020707761
Bq         3.3671252794     0.4340861391     1.2888520984
Bq         3.4698407367     0.4909967752     0.9064770020
Bq         3.3414464151     0.4198584801     1.3844458725
Bq         3.4955196010     0.5052244342     0.8108832279
Bq         3.3157675508     0.4056308210     1.4800396466
Bq         3.5211984653     0.5194520933     0.7152894538
Bq         3.2900886864     0.3914031620     1.5756334207
Bq         3.5468773297     0.5336797523     0.6196956797
Bq         3.4184830080     0.4625414571     1.0976645502
Bq         3.3891130932     0.5472964922     1.2069988639
Bq         3.4404708218     0.5757518102     1.0158113157
Bq         3.3634342289     0.5330688331     1.3025926380
Bq         3.4661496862     0.5899794692     0.9202175416
Bq         3.3377553645     0.5188411741     1.3981864120
Bq         3.4918285505     0.6042071283     0.8246237675
Bq         3.3120765002     0.5046135151     1.4937801861
Bq         3.5175074148     0.6184347873     0.7290299934
Bq         3.2863976359     0.4903858560     1.5893739602
Bq         3.5431862791     0.6326624463     0.6334362193
Bq         3.4147919575     0.5615241512     1.1114050898
Bq         3.3854220426     0.6462791862     1.2207394034
Bq         3.4367797713     0.6747345042     1.0295518552
Bq         3.3597431783     0.6320515272     1.3163331775
Bq         3.4624586356     0.6889621633     0.9339580811
Bq         3.3340643140     0.6178238681     1.4119269516
Bq         3.4881374999     0.7031898223     0.8383643070
Bq         3.3083854497     0.6035962091     1.5075207257
Bq         3.5138163643     0.7174174813     0.7427705329
Bq         3.2827065854     0.5893685501     1.6031144998
Bq         3.5394952286     0.7316451404     0.6471767588
Bq         3.4111009070     0.6605068452     1.1251456293
Bq         3.3817309921     0.7452618802     1.2344799430
Bq         3.4330887208     0.7737171983     1.0432923948
Bq         3.3560521278     0.7310342212     1.3300737171
Bq         3.4587675851     0.7879448573     0.9476986207
Bq         3.3303732635     0.7168065622     1.4256674912
Bq         3.4844464494     0.8021725163     0.8521048466
Bq         3.3046943991     0.7025789031     1.5212612653
Bq         3.5101253137     0.8164001754     0.7565110725
Bq         3.2790155348     0.6883512441     1.6168550394
Bq         3.5358041780     0.8306278344     0.6609172984
Bq         3.4074098564     0.7594895393     1.1388861689
Bq         3.3780399416     0.8442445743     1.2482204825
Bq         3.4293976702     0.8726998923     1.0570329343
Bq         3.3523610773     0.8300169152     1.3438142566
Bq         3.4550765345     0.8869275513     0.9614391602
Bq         3.3266822129     0.8157892562     1.4394080307
Bq         3.4807553989     0.9011552104     0.8658453862
Bq         3.3010033486     0.8015615972     1.5350018048
Bq         3.5064342632     0.9153828694     0.7702516121
Bq         3.2753244843     0.7873339381     1.6305955789
Bq         3.5321131275     0.9296105284     0.6746578380
Bq         3.4037188059     0.8584722333     1.1526267084
Bq         3.3743488910     0.9432272683     1.2619610221
Bq         3.4257066197     0.9716825864     1.0707734739
Bq         3.3486700267     0.9289996093     1.3575547962
Bq         3.4513854840     0.9859102454     0.9751796998
Bq         3.3229911624     0.9147719502     1.4531485703
Bq         3.4770643483     1.0001379044     0.8795859257
Bq         3.2973122981     0.9005442912     1.5487423444
Bq         3.5027432127     1.0143655634     0.7839921516
Bq         3.2716334338     0.8863166322     1.6443361185
Bq         3.5284220770     1.0285932225     0.6883983775
Bq         3.4000277554     0.9574549273     1.1663672480
Bq         3.3706578405     1.0422099623     1.2757015616
Bq         3.4220155692     1.0706652804     1.0845140135
Bq         3.3449789762     1.0279823033     1.3712953357
Bq         3.4476944335     1.0848929394     0.9889202394
Bq         3.3193001119     1.0137546443     1.4668891098
Bq         3.4733732978     1.0991205984     0.8933264653
Bq         3.2936212475     0.9995269852     1.5624828839
Bq         3.4990521621     1.1133482575     0.7977326912
Bq         3.2679423832     0.9852993262     1.6580766580
Bq         3.5247310264     1.1275759165     0.7021389171
Bq         3.3963367048     1.0564376214     1.1801077876
Bq         3.3669667900     1.1411926564     1.2894421012
Bq         3.4183245186     1.1696479744     1.0982545530
Bq         3.3412879256     1.1269649973     1.3850358753
Bq         3.4440033829     1.1838756335     1.0026607789
Bq         3.3156090613     1.1127373383     1.4806296494
Bq         3.4696822473     1.1981032925     0.9070670048
Bq         3.2899301970     1.0985096793     1.5762234235
Bq         3.4953611116     1.2123309515     0.8114732307
Bq         3.2642513327     1.0842820203     1.6718171976
Bq         3.5210399759     1.2265586105     0.7158794566
Bq         3.3926456543     1.1554203154     1.1938483271
Bq         3.3632757394     1.2401753504     1.3031826408
Bq         3.4146334681     1.2686306685     1.1119950926
Bq         3.3375968751     1.2259476914     1.3987764149
Bq         3.4403123324     1.2828583275     1.0164013185
Bq         3.3119180108     1.2117200323     1.4943701890
Bq         3.4659911967     1.2970859865     0.9208075444
Bq         3.2862391465     1.1974923733     1.5899639631
Bq         3.4916700610     1.3113136455     0.8252137703
Bq         3.2605602821     1.1832647143     1.6855577371
Bq         3.5173489254     1.3255413046     0.7296199962
Bq         3.3889546038     1.2544030094     1.2075888667
Bq         3.3595846889     1.3391580444     1.3169231803
Bq         3.4109424175     1.3676133625     1.1257356321
Bq         3.3339058246     1.3249303854     1.4125169544
Bq         3.4366212819     1.3818410215     1.0301418580
Bq         3.3082269603     1.3107027264     1.5081107285
Bq         3.4623001462     1.3960686806     0.9345480839
Bq         3.2825480959     1.2964750674     1.6037045026
Bq         3.4879790105     1.4102963396     0.8389543099
Bq         3.2568692316     1.2822474083     1.6992982767
Bq         3.5136578748     1.4245239986     0.7433605358
Bq         3.3852635532     1.3533857035     1.2213294062
Bq         3.3558936384     1.4381407385     1.3306637199
Bq         3.4072513670     1.4665960565     1.1394761717
Bq         3.3302147740     1.4239130794     1.4262574940
Bq         3.4329302313     1.4808237156     1.0438823976
Bq         3.3045359097     1.4096854204     1.5218512681
Bq         3.4586090957     1.4950513746     0.9482886235
Bq         3.2788570454     1.3954577614     1.6174450422
Bq         3.4842879600     1.5092790336     0.8526948494

1
2
3
4
5
6
7
8
9
10
11
12
13
14
15
16
17
18
19
20
21
22
23
24
25
26
27
28
29
30
31
32
33
34
35
36
37
38
39
40
41
42
43
44
45
46
47
48
49
50
51
52
53
54
55
56
57
58
59
60
61
62
63
64
65
66
67
68
69
70
71
72
73
74
75
76
77
78
79
80
81
82
83
84
85
86
87
88
89
90
91
92
93
94
95
96
97
98
99
100
101
102
103
104
105
106
107
108
109
110
111
112
113
114
115
116
117
118
119
120
121
122
123
124
125
126
127
128
129
130
131
132
133
134
135
136
137
138
139
140
141
142
143
144
145
146
147
148
149
150
151
152
153
154
155
156
157
158
159
160
161
162
163
164
165
166
167
168
169
170
171
172
173
174
175
176
177
178
179
180
181
182
183
184
185
186
187
188
189
190
191
192
193
194
195
196
197
198
199
200
201
202
203
204
205
206
207
208
209
210
211
212
213
214
215
216
217
218
219
220
221
222
223
224
225
226
227
228
229
230
231
232
233
234
235
236

