%nproc=8
%mem=1000MB
# rb3lyp/6-311+g** NMR geom=connectivity

Title

0 1
C    -4.0500558   -0.5771862    0.8136712
H    -5.0263804   -1.0082727    1.0024760
C    -3.9381552    0.6617804    0.2400876
H    -4.8252424    1.2338890   -0.0111295
C    -2.6768410    1.2433246    0.0057578
C    -1.4974121    0.5051527    0.2848253
C    -1.6508332   -0.7338728    0.9404026
H    -0.7713646   -1.2730967    1.2633753
C    -2.8898548   -1.2624035    1.1994307
H    -2.9683706   -2.2124563    1.7152676
C    -2.5773185    2.5963696   -0.4192930
H    -3.4870728    3.1412239   -0.6474055
C    -1.3741895    3.2147896   -0.4364030
H    -1.2997315    4.2742019   -0.6578144
C    -0.1719488    2.4994090   -0.1734588
C    -0.2043917    1.1018437    0.0192689
C     1.0513491    3.2042560   -0.0676222
H     1.0427344    4.2819499   -0.1896997
C     2.1942091    2.5487446    0.2579577
H     3.1168527    3.0912848    0.4334727
C     2.2216473    1.1336562    0.2934990
C     1.0486931    0.3945528    0.0302412
C     3.4483363    0.4614633    0.5573939
H     4.3095794    1.0606054    0.8334846
C     3.5427346   -0.8855926    0.4749463
H     4.4731467   -1.3939704    0.7038822
C     2.4490052   -1.6474447   -0.0196319
C     1.2150704   -1.0057258   -0.3013573
C     0.2531113   -1.7434440   -1.0216591
H    -0.6541356   -1.2535051   -1.3462847
C     0.4494193   -3.0628597   -1.3413779
H    -0.3083162   -3.5944309   -1.9054060
C     1.6251726   -3.7207967   -0.9552541
H     1.7670048   -4.7687404   -1.1927019
C     2.6109872   -3.0144177   -0.3183050
H     3.5525612   -3.4902813   -0.0646367
Bq         1.5395597237     1.1391566344     0.6750960264
Bq         1.5257959046     1.2439493349     0.7690590363
Bq         1.5547478107     1.2341223647     0.5714098071
Bq         1.5113199516     1.2488628200     0.8678836508
Bq         1.5692237638     1.2292088797     0.4725851925
Bq         1.4968439986     1.2537763051     0.9667082654
Bq         1.5836997168     1.2242953946     0.3737605779
Bq         1.4823680455     1.2586897901     1.0655328800
Bq         1.5981756699     1.2193819095     0.2749359633
Bq         1.4678920925     1.2636032752     1.1643574946
Bq         1.6126516229     1.2144684244     0.1761113487
Bq         1.5402718577     1.2390358498     0.6702344217
Bq         1.5265080386     1.3438285503     0.7641974315
Bq         1.5554599447     1.3340015801     0.5665482023
Bq         1.5120320855     1.3487420354     0.8630220461
Bq         1.5699358977     1.3290880950     0.4677235877
Bq         1.4975561325     1.3536555204     0.9618466607
Bq         1.5844118508     1.3241746099     0.3688989732
Bq         1.4830801795     1.3585690055     1.0606712752
Bq         1.5988878038     1.3192611249     0.2700743586
Bq         1.4686042264     1.3634824906     1.1594958898
Bq         1.6133637569     1.3143476398     0.1712497440
Bq         1.5409839916     1.3389150652     0.6653728169
Bq         1.5272201725     1.4437077657     0.7593358267
Bq         1.5561720786     1.4338807955     0.5616865976
Bq         1.5127442195     1.4486212507     0.8581604413
Bq         1.5706480317     1.4289673104     0.4628619830
Bq         1.4982682664     1.4535347358     0.9569850559
Bq         1.5851239847     1.4240538253     0.3640373684
Bq         1.4837923134     1.4584482209     1.0558096705
Bq         1.5995999378     1.4191403402     0.2652127538
Bq         1.4693163604     1.4633617060     1.1546342851
Bq         1.6140758908     1.4142268552     0.1663881392
Bq         1.5416961256     1.4387942806     0.6605112121
Bq         1.5279323065     1.5435869810     0.7544742220
Bq         1.5568842126     1.5337600109     0.5568249928
Bq         1.5134563534     1.5485004661     0.8532988365
Bq         1.5713601656     1.5288465258     0.4580003782
Bq         1.4989804004     1.5534139512     0.9521234511
Bq         1.5858361186     1.5239330407     0.3591757636
Bq         1.4845044473     1.5583274363     1.0509480657
Bq         1.6003120717     1.5190195556     0.2603511490
Bq         1.4700284943     1.5632409214     1.1497726803
Bq         1.6147880247     1.5141060705     0.1615265344
Bq         1.5424082595     1.5386734959     0.6556496074
Bq         1.5286444404     1.6434661964     0.7496126172
Bq         1.5575963465     1.6336392262     0.5519633880
Bq         1.5141684874     1.6483796815     0.8484372318
Bq         1.5720722995     1.6287257412     0.4531387734
Bq         1.4996925343     1.6532931666     0.9472618464
Bq         1.5865482526     1.6238122561     0.3543141589
Bq         1.4852165813     1.6582066517     1.0460864609
Bq         1.6010242056     1.6188987710     0.2554895443
Bq         1.4707406282     1.6631201367     1.1449110755
Bq         1.6155001587     1.6139852859     0.1566649297
Bq         1.5431203935     1.6385527113     0.6507880026
Bq         1.5293565744     1.7433454118     0.7447510124
Bq         1.5583084804     1.7335184416     0.5471017833
Bq         1.5148806213     1.7482588969     0.8435756270
Bq         1.5727844335     1.7286049565     0.4482771687
Bq         1.5004046683     1.7531723819     0.9424002416
Bq         1.5872603865     1.7236914715     0.3494525541
Bq         1.4859287152     1.7580858670     1.0412248562
Bq         1.6017363396     1.7187779864     0.2506279395
Bq         1.4714527622     1.7629993521     1.1400494708
Bq         1.6162122926     1.7138645013     0.1518033249
Bq         1.5438325274     1.7384319267     0.6459263978
Bq         1.5300687083     1.8432246272     0.7398894077
Bq         1.5590206144     1.8333976570     0.5422401785
Bq         1.5155927553     1.8481381122     0.8387140222
Bq         1.5734965674     1.8284841719     0.4434155639
Bq         1.5011168022     1.8530515973     0.9375386368
Bq         1.5879725205     1.8235706868     0.3445909493
Bq         1.4866408492     1.8579650824     1.0363632514
Bq         1.6024484735     1.8186572017     0.2457663347
Bq         1.4721648961     1.8628785675     1.1351878660
Bq         1.6169244266     1.8137437167     0.1469417202
Bq         1.5445446613     1.8383111421     0.6410647931
Bq         1.5307808422     1.9431038425     0.7350278029
Bq         1.5597327483     1.9332768724     0.5373785737
Bq         1.5163048892     1.9480173276     0.8338524175
Bq         1.5742087014     1.9283633873     0.4385539591
Bq         1.5018289362     1.9529308127     0.9326770321
Bq         1.5886846544     1.9234499022     0.3397293446
Bq         1.4873529831     1.9578442978     1.0315016466
Bq         1.6031606075     1.9185364171     0.2409047300
Bq         1.4728770301     1.9627577829     1.1303262612
Bq         1.6176365605     1.9136229320     0.1420801154
Bq         1.5452567953     1.9381903575     0.6362031883
Bq         1.5314929762     2.0429830579     0.7301661981
Bq         1.5604448823     2.0331560878     0.5325169690
Bq         1.5170170231     2.0478965430     0.8289908127
Bq         1.5749208353     2.0282426027     0.4336923544
Bq         1.5025410701     2.0528100281     0.9278154273
Bq         1.5893967884     2.0233291176     0.3348677398
Bq         1.4880651170     2.0577235132     1.0266400419
Bq         1.6038727414     2.0184156325     0.2360431252
Bq         1.4735891640     2.0626369982     1.1254646565
Bq         1.6183486944     2.0135021474     0.1372185106
Bq         1.5459689292     2.0380695728     0.6313415835
Bq         1.5322051101     2.1428622733     0.7253045934
Bq         1.5611570162     2.1330353031     0.5276553642
Bq         1.5177291571     2.1477757584     0.8241292079
Bq         1.5756329693     2.1281218180     0.4288307496
Bq         1.5032532040     2.1526892435     0.9229538225
Bq         1.5901089223     2.1232083330     0.3300061350
Bq         1.4887772510     2.1576027285     1.0217784371
Bq         1.6045848753     2.1182948479     0.2311815204
Bq         1.4743012979     2.1625162136     1.1206030517
Bq         1.6190608284     2.1133813628     0.1323569059
Bq         1.5466810632     2.1379487882     0.6264799788
Bq         1.5329172441     2.2427414887     0.7204429886
Bq         1.5618691502     2.2329145185     0.5227937594
Bq         1.5184412910     2.2476549738     0.8192676032
Bq         1.5763451032     2.2280010334     0.4239691448
Bq         1.5039653380     2.2525684588     0.9180922178
Bq         1.5908210562     2.2230875483     0.3251445303
Bq         1.4894893849     2.2574819439     1.0169168323
Bq         1.6052970093     2.2181740633     0.2263199157
Bq         1.4750134319     2.2623954290     1.1157414469
Bq         1.6197729623     2.2132605782     0.1274953011
Bq         1.5473931971     2.2378280036     0.6216183740
Bq         1.5336293780     2.3426207040     0.7155813838
Bq         1.5625812841     2.3327937339     0.5179321547
Bq         1.5191534250     2.3475341891     0.8144059984
Bq         1.5770572371     2.3278802488     0.4191075401
Bq         1.5046774719     2.3524476742     0.9132306130
Bq         1.5915331902     2.3229667637     0.3202829255
Bq         1.4902015189     2.3573611593     1.0120552276
Bq         1.6060091432     2.3180532786     0.2214583109
Bq         1.4757255658     2.3622746444     1.1108798422
Bq         1.6204850963     2.3131397936     0.1226336963
Bq         1.5481053310     2.3377072190     0.6167567692
Bq         1.5343415119     2.4424999194     0.7107197791
Bq         1.5632934180     2.4326729493     0.5130705499
Bq         1.5198655589     2.4474134045     0.8095443936
Bq         1.5777693711     2.4277594642     0.4142459353
Bq         1.5053896059     2.4523268896     0.9083690082
Bq         1.5922453241     2.4228459791     0.3154213207
Bq         1.4909136528     2.4572403747     1.0071936228
Bq         1.6067212772     2.4179324940     0.2165967061
Bq         1.4764376998     2.4621538598     1.1060182374
Bq         1.6211972302     2.4130190089     0.1177720916
Bq         1.5488174650     2.4375864343     0.6118951645
Bq         1.5350536459     2.5423791348     0.7058581743
Bq         1.5640055520     2.5325521646     0.5082089451
Bq         1.5205776928     2.5472926199     0.8046827889
Bq         1.5784815050     2.5276386796     0.4093843305
Bq         1.5061017398     2.5522061050     0.9035074035
Bq         1.5929574581     2.5227251945     0.3105597160
Bq         1.4916257868     2.5571195900     1.0023320180
Bq         1.6074334111     2.5178117094     0.2117351014
Bq         1.4771498337     2.5620330751     1.1011566326
Bq         1.6219093642     2.5128982243     0.1129104868
Bq         1.5495295989     2.5374656497     0.6070335597
Bq         1.5357657798     2.6422583502     0.7009965695
Bq         1.5647176859     2.6324313800     0.5033473404
Bq         1.5212898268     2.6471718353     0.7998211841
Bq         1.5791936390     2.6275178949     0.4045227258
Bq         1.5068138737     2.6520853203     0.8986457987
Bq         1.5936695920     2.6226044098     0.3056981112
Bq         1.4923379207     2.6569988054     0.9974704133
Bq         1.6081455451     2.6176909248     0.2068734966
Bq         1.4778619677     2.6619122905     1.0962950279
Bq         1.6226214981     2.6127774397     0.1080488820
Bq         1.5502417329     2.6373448651     0.6021719549
Bq         1.5364779138     2.7421375656     0.6961349648
Bq         1.5654298199     2.7323105954     0.4984857356
Bq         1.5220019607     2.7470510506     0.7949595793
Bq         1.5799057729     2.7273971103     0.3996611210
Bq         1.5075260077     2.7519645357     0.8937841939
Bq         1.5943817259     2.7224836252     0.3008365064
Bq         1.4930500546     2.7568780208     0.9926088085
Bq         1.6088576790     2.7175701401     0.2020118918
Bq         1.4785741016     2.7617915059     1.0914334231
Bq         1.6233336320     2.7126566551     0.1031872773
Bq         1.5509538668     2.7372240805     0.5973103502
Bq         1.5371900477     2.8420167809     0.6912733600
Bq         1.5661419538     2.8321898108     0.4936241308
Bq         1.5227140947     2.8469302660     0.7900979746
Bq         1.5806179068     2.8272763257     0.3947995162
Bq         1.5082381416     2.8518437511     0.8889225892
Bq         1.5950938599     2.8223628406     0.2959749017
Bq         1.4937621886     2.8567572362     0.9877472037
Bq         1.6095698129     2.8174493555     0.1971502871
Bq         1.4792862355     2.8616707213     1.0865718183
Bq         1.6240457660     2.8125358704     0.0983256725
Bq         1.5516660008     2.8371032959     0.5924487454
Bq         1.5379021817     2.9418959963     0.6864117552
Bq         1.5668540877     2.9320690261     0.4887625261
Bq         1.5234262286     2.9468094814     0.7852363698
Bq         1.5813300408     2.9271555411     0.3899379115
Bq         1.5089502756     2.9517229665     0.8840609844
Bq         1.5958059938     2.9222420560     0.2911132969
Bq         1.4944743225     2.9566364516     0.9828855990
Bq         1.6102819469     2.9173285709     0.1922886823
Bq         1.4799983695     2.9615499366     1.0817102136
Bq         1.6247578999     2.9124150858     0.0934640677
Bq         1.5523781347     2.9369825112     0.5875871406
Bq         1.5386143156     3.0417752117     0.6815501505

1
2
3
4
5
6
7
8
9
10
11
12
13
14
15
16
17
18
19
20
21
22
23
24
25
26
27
28
29
30
31
32
33
34
35
36
37
38
39
40
41
42
43
44
45
46
47
48
49
50
51
52
53
54
55
56
57
58
59
60
61
62
63
64
65
66
67
68
69
70
71
72
73
74
75
76
77
78
79
80
81
82
83
84
85
86
87
88
89
90
91
92
93
94
95
96
97
98
99
100
101
102
103
104
105
106
107
108
109
110
111
112
113
114
115
116
117
118
119
120
121
122
123
124
125
126
127
128
129
130
131
132
133
134
135
136
137
138
139
140
141
142
143
144
145
146
147
148
149
150
151
152
153
154
155
156
157
158
159
160
161
162
163
164
165
166
167
168
169
170
171
172
173
174
175
176
177
178
179
180
181
182
183
184
185
186
187
188
189
190
191
192
193
194
195
196
197
198
199
200
201
202
203
204
205
206
207
208
209
210
211
212
213
214
215
216
217
218
219
220
221
222
223
224
225
226
227
228
229
230
231
232
233
234
235
236

