%nproc=8
%mem=1000MB
# rb3lyp/6-311+g** NMR geom=connectivity

Title

0 1
C    -4.0500558   -0.5771862    0.8136712
H    -5.0263804   -1.0082727    1.0024760
C    -3.9381552    0.6617804    0.2400876
H    -4.8252424    1.2338890   -0.0111295
C    -2.6768410    1.2433246    0.0057578
C    -1.4974121    0.5051527    0.2848253
C    -1.6508332   -0.7338728    0.9404026
H    -0.7713646   -1.2730967    1.2633753
C    -2.8898548   -1.2624035    1.1994307
H    -2.9683706   -2.2124563    1.7152676
C    -2.5773185    2.5963696   -0.4192930
H    -3.4870728    3.1412239   -0.6474055
C    -1.3741895    3.2147896   -0.4364030
H    -1.2997315    4.2742019   -0.6578144
C    -0.1719488    2.4994090   -0.1734588
C    -0.2043917    1.1018437    0.0192689
C     1.0513491    3.2042560   -0.0676222
H     1.0427344    4.2819499   -0.1896997
C     2.1942091    2.5487446    0.2579577
H     3.1168527    3.0912848    0.4334727
C     2.2216473    1.1336562    0.2934990
C     1.0486931    0.3945528    0.0302412
C     3.4483363    0.4614633    0.5573939
H     4.3095794    1.0606054    0.8334846
C     3.5427346   -0.8855926    0.4749463
H     4.4731467   -1.3939704    0.7038822
C     2.4490052   -1.6474447   -0.0196319
C     1.2150704   -1.0057258   -0.3013573
C     0.2531113   -1.7434440   -1.0216591
H    -0.6541356   -1.2535051   -1.3462847
C     0.4494193   -3.0628597   -1.3413779
H    -0.3083162   -3.5944309   -1.9054060
C     1.6251726   -3.7207967   -0.9552541
H     1.7670048   -4.7687404   -1.1927019
C     2.6109872   -3.0144177   -0.3183050
H     3.5525612   -3.4902813   -0.0646367
Bq         0.6232103842     1.2144684244     0.0311767596
Bq         0.5508306190     1.2390358498     0.5252998325
Bq         0.5370667999     1.3438285503     0.6192628424
Bq         0.5660187060     1.3340015801     0.4216136132
Bq         0.5225908468     1.3487420354     0.7180874569
Bq         0.5804946590     1.3290880950     0.3227889986
Bq         0.5081148938     1.3536555204     0.8169120715
Bq         0.5949706121     1.3241746099     0.2239643840
Bq         0.4936389407     1.3585690055     0.9157366861
Bq         0.6094465651     1.3192611249     0.1251397694
Bq         0.4791629877     1.3634824906     1.0145613007
Bq         0.6239225181     1.3143476398     0.0263151548
Bq         0.5515427529     1.3389150652     0.5204382278
Bq         0.5377789338     1.4437077657     0.6144012376
Bq         0.5667308399     1.4338807955     0.4167520084
Bq         0.5233029808     1.4486212507     0.7132258522
Bq         0.5812067929     1.4289673104     0.3179273938
Bq         0.5088270277     1.4535347358     0.8120504668
Bq         0.5956827460     1.4240538253     0.2191027792
Bq         0.4943510747     1.4584482209     0.9108750813
Bq         0.6101586990     1.4191403402     0.1202781647
Bq         0.4798751216     1.4633617060     1.0096996959
Bq         0.6246346521     1.4142268552     0.0214535501
Bq         0.5522548869     1.4387942806     0.5155766230
Bq         0.5384910678     1.5435869810     0.6095396328
Bq         0.5674429738     1.5337600109     0.4118904036
Bq         0.5240151147     1.5485004661     0.7083642474
Bq         0.5819189269     1.5288465258     0.3130657891
Bq         0.5095391617     1.5534139512     0.8071888620
Bq         0.5963948799     1.5239330407     0.2142411745
Bq         0.4950632086     1.5583274363     0.9060134766
Bq         0.6108708330     1.5190195556     0.1154165599
Bq         0.4805872556     1.5632409214     1.0048380912
Bq         0.6253467860     1.5141060705     0.0165919453
Bq         0.5529670208     1.5386734959     0.5107150182
Bq         0.5392032017     1.6434661964     0.6046780281
Bq         0.5681551078     1.6336392262     0.4070287989
Bq         0.5247272487     1.6483796815     0.7035026426
Bq         0.5826310608     1.6287257412     0.3082041843
Bq         0.5102512956     1.6532931666     0.8023272572
Bq         0.5971070139     1.6238122561     0.2093795697
Bq         0.4957753426     1.6582066517     0.9011518718
Bq         0.6115829669     1.6188987710     0.1105549551
Bq         0.4812993895     1.6631201367     0.9999764864
Bq         0.6260589200     1.6139852859     0.0117303405
Bq         0.5536791547     1.6385527113     0.5058534135
Bq         0.5399153356     1.7433454118     0.5998164233
Bq         0.5688672417     1.7335184416     0.4021671941
Bq         0.5254393826     1.7482588969     0.6986410379
Bq         0.5833431948     1.7286049565     0.3033425795
Bq         0.5109634296     1.7531723819     0.7974656525
Bq         0.5978191478     1.7236914715     0.2045179649
Bq         0.4964874765     1.7580858670     0.8962902670
Bq         0.6122951009     1.7187779864     0.1056933504
Bq         0.4820115235     1.7629993521     0.9951148816
Bq         0.6267710539     1.7138645013     0.0068687358
Bq         0.5543912887     1.7384319267     0.5009918087
Bq         0.5406274696     1.8432246272     0.5949548185
Bq         0.5695793757     1.8333976570     0.3973055893
Bq         0.5261515165     1.8481381122     0.6937794331
Bq         0.5840553287     1.8284841719     0.2984809748
Bq         0.5116755635     1.8530515973     0.7926040477
Bq         0.5985312818     1.8235706868     0.1996563602
Bq         0.4971996104     1.8579650824     0.8914286623
Bq         0.6130072348     1.8186572017     0.1008317456
Bq         0.4827236574     1.8628785675     0.9902532769
Bq         0.6274831878     1.8137437167     0.0020071310
Bq         0.5551034226     1.8383111421     0.4961302039
Bq         0.5413396035     1.9431038425     0.5900932138
Bq         0.5702915096     1.9332768724     0.3924439846
Bq         0.5268636505     1.9480173276     0.6889178283
Bq         0.5847674627     1.9283633873     0.2936193700
Bq         0.5123876974     1.9529308127     0.7877424429
Bq         0.5992434157     1.9234499022     0.1947947554
Bq         0.4979117444     1.9578442978     0.8865670575
Bq         0.6137193687     1.9185364171     0.0959701408
Bq         0.4834357913     1.9627577829     0.9853916721
Bq         0.6281953218     1.9136229320    -0.0028544738
Bq         0.5558155566     1.9381903575     0.4912685992
Bq         0.5420517375     2.0429830579     0.5852316090
Bq         0.5710036436     2.0331560878     0.3875823798
Bq         0.5275757844     2.0478965430     0.6840562236
Bq         0.5854795966     2.0282426027     0.2887577652
Bq         0.5130998314     2.0528100281     0.7828808382
Bq         0.5999555496     2.0233291176     0.1899331506
Bq         0.4986238783     2.0577235132     0.8817054527
Bq         0.6144315027     2.0184156325     0.0911085361
Bq         0.4841479253     2.0626369982     0.9805300673
Bq         0.6289074557     2.0135021474    -0.0077160785
Bq         0.5565276905     2.0380695728     0.4864069944
Bq         0.5427638714     2.1428622733     0.5803700042
Bq         0.5717157775     2.1330353031     0.3827207750
Bq         0.5282879184     2.1477757584     0.6791946188
Bq         0.5861917305     2.1281218180     0.2838961605
Bq         0.5138119653     2.1526892435     0.7780192334
Bq         0.6006676836     2.1232083330     0.1850715459
Bq         0.4993360123     2.1576027285     0.8768438480
Bq         0.6151436366     2.1182948479     0.0862469313
Bq         0.4848600592     2.1625162136     0.9756684626
Bq         0.6296195897     2.1133813628    -0.0125776833
Bq         0.5572398245     2.1379487882     0.4815453896
Bq         0.5434760053     2.2427414887     0.5755083995
Bq         0.5724279114     2.2329145185     0.3778591703
Bq         0.5290000523     2.2476549738     0.6743330140
Bq         0.5869038645     2.2280010334     0.2790345557
Bq         0.5145240993     2.2525684588     0.7731576286
Bq         0.6013798175     2.2230875483     0.1802099411
Bq         0.5000481462     2.2574819439     0.8719822432
Bq         0.6158557706     2.2181740633     0.0813853265
Bq         0.4855721932     2.2623954290     0.9708068578
Bq         0.6303317236     2.2132605782    -0.0174392881
Bq         0.5579519584     2.2378280036     0.4766837849
Bq         0.5441881393     2.3426207040     0.5706467947
Bq         0.5731400454     2.3327937339     0.3729975655
Bq         0.5297121862     2.3475341891     0.6694714093
Bq         0.5876159984     2.3278802488     0.2741729509
Bq         0.5152362332     2.3524476742     0.7682960239
Bq         0.6020919515     2.3229667637     0.1753483363
Bq         0.5007602802     2.3573611593     0.8671206384
Bq         0.6165679045     2.3180532786     0.0765237218
Bq         0.4862843271     2.3622746444     0.9659452530
Bq         0.6310438576     2.3131397936    -0.0223008928
Bq         0.5586640923     2.3377072190     0.4718221801
Bq         0.5449002732     2.4424999194     0.5657851899
Bq         0.5738521793     2.4326729493     0.3681359608
Bq         0.5304243202     2.4474134045     0.6646098045
Bq         0.5883281324     2.4277594642     0.2693113462
Bq         0.5159483671     2.4523268896     0.7634344191
Bq         0.6028040854     2.4228459791     0.1704867316
Bq         0.5014724141     2.4572403747     0.8622590337
Bq         0.6172800385     2.4179324940     0.0716621170
Bq         0.4869964611     2.4621538598     0.9610836483
Bq         0.6317559915     2.4130190089    -0.0271624976
Bq         0.5593762263     2.4375864343     0.4669605753
Bq         0.5456124072     2.5423791348     0.5609235852
Bq         0.5745643133     2.5325521646     0.3632743560
Bq         0.5311364541     2.5472926199     0.6597481997
Bq         0.5890402663     2.5276386796     0.2644497414
Bq         0.5166605011     2.5522061050     0.7585728143
Bq         0.6035162194     2.5227251945     0.1656251268
Bq         0.5021845480     2.5571195900     0.8573974289
Bq         0.6179921724     2.5178117094     0.0668005122
Bq         0.4877085950     2.5620330751     0.9562220435
Bq         0.6324681254     2.5128982243    -0.0320241024
Bq         0.5600883602     2.5374656497     0.4620989706
Bq         0.5463245411     2.6422583502     0.5560619804
Bq         0.5752764472     2.6324313800     0.3584127512
Bq         0.5318485881     2.6471718353     0.6548865950
Bq         0.5897524002     2.6275178949     0.2595881366
Bq         0.5173726350     2.6520853203     0.7537112096
Bq         0.6042283533     2.6226044098     0.1607635220
Bq         0.5028966820     2.6569988054     0.8525358241
Bq         0.6187043063     2.6176909248     0.0619389075
Bq         0.4884207289     2.6619122905     0.9513604387
Bq         0.6331802594     2.6127774397    -0.0368857071
Bq         0.5608004942     2.6373448651     0.4572373658
Bq         0.5470366751     2.7421375656     0.5512003756
Bq         0.5759885811     2.7323105954     0.3535511465
Bq         0.5325607220     2.7470510506     0.6500249902
Bq         0.5904645342     2.7273971103     0.2547265319
Bq         0.5180847690     2.7519645357     0.7488496048
Bq         0.6049404872     2.7224836252     0.1559019173
Bq         0.5036088159     2.7568780208     0.8476742194
Bq         0.6194164403     2.7175701401     0.0570773027
Bq         0.4891328629     2.7617915059     0.9464988340
Bq         0.6338923933     2.7126566551    -0.0417473119
Bq         0.5615126281     2.7372240805     0.4523757610
Bq         0.5477488090     2.8420167809     0.5463387709
Bq         0.5767007151     2.8321898108     0.3486895417
Bq         0.5332728560     2.8469302660     0.6451633854
Bq         0.5911766681     2.8272763257     0.2498649271
Bq         0.5187969029     2.8518437511     0.7439880000
Bq         0.6056526212     2.8223628406     0.1510403125
Bq         0.5043209499     2.8567572362     0.8428126146
Bq         0.6201285742     2.8174493555     0.0522156979
Bq         0.4898449968     2.8616707213     0.9416372292
Bq         0.6346045273     2.8125358704    -0.0466089167
Bq         0.5622247620     2.8371032959     0.4475141563
Bq         0.5484609429     2.9418959963     0.5414771661
Bq         0.5774128490     2.9320690261     0.3438279369
Bq         0.5339849899     2.9468094814     0.6403017807
Bq         0.5918888021     2.9271555411     0.2450033223
Bq         0.5195090369     2.9517229665     0.7391263953
Bq         0.6063647551     2.9222420560     0.1461787077
Bq         0.5050330838     2.9566364516     0.8379510098
Bq         0.6208407082     2.9173285709     0.0473540932
Bq         0.4905571308     2.9615499366     0.9367756244
Bq         0.6353166612     2.9124150858    -0.0514705214
Bq         0.5629368960     2.9369825112     0.4426525515
Bq         0.5491730769     3.0417752117     0.5366155613
Bq         0.5781249830     3.0319482415     0.3389663322
Bq         0.5346971238     3.0466886968     0.6354401759
Bq         0.5926009360     3.0270347564     0.2401417176
Bq         0.5202211708     3.0516021819     0.7342647905
Bq         0.6070768891     3.0221212714     0.1413171030
Bq         0.5057452177     3.0565156669     0.8330894051
Bq         0.6215528421     3.0172077863     0.0424924884
Bq         0.4912692647     3.0614291520     0.9319140197
Bq         0.6360287951     3.0122943012    -0.0563321262
Bq         0.5636490299     3.0368617266     0.4377909467

1
2
3
4
5
6
7
8
9
10
11
12
13
14
15
16
17
18
19
20
21
22
23
24
25
26
27
28
29
30
31
32
33
34
35
36
37
38
39
40
41
42
43
44
45
46
47
48
49
50
51
52
53
54
55
56
57
58
59
60
61
62
63
64
65
66
67
68
69
70
71
72
73
74
75
76
77
78
79
80
81
82
83
84
85
86
87
88
89
90
91
92
93
94
95
96
97
98
99
100
101
102
103
104
105
106
107
108
109
110
111
112
113
114
115
116
117
118
119
120
121
122
123
124
125
126
127
128
129
130
131
132
133
134
135
136
137
138
139
140
141
142
143
144
145
146
147
148
149
150
151
152
153
154
155
156
157
158
159
160
161
162
163
164
165
166
167
168
169
170
171
172
173
174
175
176
177
178
179
180
181
182
183
184
185
186
187
188
189
190
191
192
193
194
195
196
197
198
199
200
201
202
203
204
205
206
207
208
209
210
211
212
213
214
215
216
217
218
219
220
221
222
223
224
225
226
227
228
229
230
231
232
233
234
235
236

