%nproc=8
%mem=1000MB
# rb3lyp/6-311+g** NMR geom=connectivity

Title

0 1
C    -4.0500558   -0.5771862    0.8136712
H    -5.0263804   -1.0082727    1.0024760
C    -3.9381552    0.6617804    0.2400876
H    -4.8252424    1.2338890   -0.0111295
C    -2.6768410    1.2433246    0.0057578
C    -1.4974121    0.5051527    0.2848253
C    -1.6508332   -0.7338728    0.9404026
H    -0.7713646   -1.2730967    1.2633753
C    -2.8898548   -1.2624035    1.1994307
H    -2.9683706   -2.2124563    1.7152676
C    -2.5773185    2.5963696   -0.4192930
H    -3.4870728    3.1412239   -0.6474055
C    -1.3741895    3.2147896   -0.4364030
H    -1.2997315    4.2742019   -0.6578144
C    -0.1719488    2.4994090   -0.1734588
C    -0.2043917    1.1018437    0.0192689
C     1.0513491    3.2042560   -0.0676222
H     1.0427344    4.2819499   -0.1896997
C     2.1942091    2.5487446    0.2579577
H     3.1168527    3.0912848    0.4334727
C     2.2216473    1.1336562    0.2934990
C     1.0486931    0.3945528    0.0302412
C     3.4483363    0.4614633    0.5573939
H     4.3095794    1.0606054    0.8334846
C     3.5427346   -0.8855926    0.4749463
H     4.4731467   -1.3939704    0.7038822
C     2.4490052   -1.6474447   -0.0196319
C     1.2150704   -1.0057258   -0.3013573
C     0.2531113   -1.7434440   -1.0216591
H    -0.6541356   -1.2535051   -1.3462847
C     0.4494193   -3.0628597   -1.3413779
H    -0.3083162   -3.5944309   -1.9054060
C     1.6251726   -3.7207967   -0.9552541
H     1.7670048   -4.7687404   -1.1927019
C     2.6109872   -3.0144177   -0.3183050
H     3.5525612   -3.4902813   -0.0646367
Bq        -0.0716248125    -0.1035103082     0.5989333603
Bq         0.1851638307     0.0387662821    -0.3570043807
Bq         0.0567695091    -0.0323720130     0.1209644898
Bq         0.0273995942     0.0523830220     0.2302988034
Bq         0.0787573229     0.0808383400     0.0391112553
Bq         0.0017207299     0.0381553629     0.3258925775
Bq         0.1044361872     0.0950659991    -0.0564825188
Bq        -0.0239581344     0.0239277039     0.4214863516
Bq         0.1301150515     0.1092936581    -0.1520762929
Bq        -0.0496369987     0.0097000449     0.5170801257
Bq         0.1557939158     0.1235213171    -0.2476700670
Bq        -0.0753158631    -0.0045276141     0.6126738998
Bq         0.1814727802     0.1377489761    -0.3432638411
Bq         0.0530784586     0.0666106810     0.1347050294
Bq         0.0237085437     0.1513657160     0.2440393430
Bq         0.0750662723     0.1798210341     0.0528517948
Bq        -0.0019703206     0.1371380570     0.3396331171
Bq         0.1007451367     0.1940486931    -0.0427419793
Bq        -0.0276491849     0.1229103980     0.4352268912
Bq         0.1264240010     0.2082763521    -0.1383357534
Bq        -0.0533280493     0.1086827389     0.5308206653
Bq         0.1521028653     0.2225040112    -0.2339295275
Bq        -0.0790069136     0.0944550799     0.6264144394
Bq         0.1777817296     0.2367316702    -0.3295233016
Bq         0.0493874080     0.1655933750     0.1484455689
Bq         0.0200174932     0.2503484100     0.2577798826
Bq         0.0713752218     0.2788037281     0.0665923344
Bq        -0.0056613712     0.2361207510     0.3533736567
Bq         0.0970540861     0.2930313871    -0.0290014397
Bq        -0.0313402355     0.2218930920     0.4489674308
Bq         0.1227329505     0.3072590462    -0.1245952138
Bq        -0.0570190998     0.2076654330     0.5445612048
Bq         0.1484118148     0.3214867052    -0.2201889879
Bq        -0.0826979641     0.1934377739     0.6401549789
Bq         0.1740906791     0.3357143642    -0.3157827620
Bq         0.0456963575     0.2645760691     0.1621861085
Bq         0.0163264426     0.3493311041     0.2715204221
Bq         0.0676841713     0.3777864221     0.0803328739
Bq        -0.0093524217     0.3351034451     0.3671141962
Bq         0.0933630356     0.3920140812    -0.0152609002
Bq        -0.0350312860     0.3208757860     0.4627079703
Bq         0.1190418999     0.4062417402    -0.1108546743
Bq        -0.0607101503     0.3066481270     0.5583017444
Bq         0.1447207642     0.4204693992    -0.2064484484
Bq        -0.0863890147     0.2924204680     0.6538955185
Bq         0.1703996286     0.4346970583    -0.3020422224
Bq         0.0420053069     0.3635587631     0.1759266480
Bq         0.0126353921     0.4483137981     0.2852609617
Bq         0.0639931207     0.4767691162     0.0940734135
Bq        -0.0130434722     0.4340861391     0.3808547358
Bq         0.0896719851     0.4909967752    -0.0015203606
Bq        -0.0387223366     0.4198584801     0.4764485099
Bq         0.1153508494     0.5052244342    -0.0971141347
Bq        -0.0644012009     0.4056308210     0.5720422840
Bq         0.1410297137     0.5194520933    -0.1927079088
Bq        -0.0900800652     0.3914031620     0.6676360581
Bq         0.1667085780     0.5336797523    -0.2883016829
Bq         0.0383142564     0.4625414571     0.1896671876
Bq         0.0089443416     0.5472964922     0.2990015012
Bq         0.0603020702     0.5757518102     0.1078139531
Bq        -0.0167345228     0.5330688331     0.3945952753
Bq         0.0859809345     0.5899794692     0.0122201790
Bq        -0.0424133871     0.5188411741     0.4901890494
Bq         0.1116597988     0.6042071283    -0.0833735951
Bq        -0.0680922514     0.5046135151     0.5857828235
Bq         0.1373386632     0.6184347873    -0.1789673692
Bq        -0.0937711157     0.4903858560     0.6813765976
Bq         0.1630175275     0.6326624463    -0.2745611433
Bq         0.0346232059     0.5615241512     0.2034077271
Bq         0.0052532910     0.6462791862     0.3127420408
Bq         0.0566110197     0.6747345042     0.1215544926
Bq        -0.0204255733     0.6320515272     0.4083358149
Bq         0.0822898840     0.6889621633     0.0259607185
Bq        -0.0461044376     0.6178238681     0.5039295890
Bq         0.1079687483     0.7031898223    -0.0696330556
Bq        -0.0717833019     0.6035962091     0.5995233631
Bq         0.1336476126     0.7174174813    -0.1652268297
Bq        -0.0974621663     0.5893685501     0.6951171372
Bq         0.1593264770     0.7316451404    -0.2608206038
Bq         0.0309321553     0.6605068452     0.2171482667
Bq         0.0015622405     0.7452618802     0.3264825804
Bq         0.0529199691     0.7737171983     0.1352950322
Bq        -0.0241166238     0.7310342212     0.4220763545
Bq         0.0785988335     0.7879448573     0.0397012581
Bq        -0.0497954882     0.7168065622     0.5176701285
Bq         0.1042776978     0.8021725163    -0.0558925160
Bq        -0.0754743525     0.7025789031     0.6132639026
Bq         0.1299565621     0.8164001754    -0.1514862901
Bq        -0.1011532168     0.6883512441     0.7088576767
Bq         0.1556354264     0.8306278344    -0.2470800642
Bq         0.0272411048     0.7594895393     0.2308888063
Bq        -0.0021288101     0.8442445743     0.3402231199
Bq         0.0492289186     0.8726998923     0.1490355717
Bq        -0.0278076744     0.8300169152     0.4358168940
Bq         0.0749077829     0.8869275513     0.0534417976
Bq        -0.0534865387     0.8157892562     0.5314106681
Bq         0.1005866472     0.9011552104    -0.0421519765
Bq        -0.0791654030     0.8015615972     0.6270044422
Bq         0.1262655116     0.9153828694    -0.1377457506
Bq        -0.1048442673     0.7873339381     0.7225982163
Bq         0.1519443759     0.9296105284    -0.2333395247
Bq         0.0235500543     0.8584722333     0.2446293458
Bq        -0.0058198606     0.9432272683     0.3539636595
Bq         0.0455378681     0.9716825864     0.1627761113
Bq        -0.0314987249     0.9289996093     0.4495574336
Bq         0.0712167324     0.9859102454     0.0671823372
Bq        -0.0571775892     0.9147719502     0.5451512077
Bq         0.0968955967     1.0001379044    -0.0284114369
Bq        -0.0828564536     0.9005442912     0.6407449818
Bq         0.1225744610     1.0143655634    -0.1240052110
Bq        -0.1085353179     0.8863166322     0.7363387559
Bq         0.1482533253     1.0285932225    -0.2195989851
Bq         0.0198590037     0.9574549273     0.2583698854
Bq        -0.0095109111     1.0422099623     0.3677041990
Bq         0.0418468175     1.0706652804     0.1765166508
Bq        -0.0351897754     1.0279823033     0.4632979731
Bq         0.0675256818     1.0848929394     0.0809228768
Bq        -0.0608686398     1.0137546443     0.5588917472
Bq         0.0932045462     1.0991205984    -0.0146708973
Bq        -0.0865475041     0.9995269852     0.6544855213
Bq         0.1188834105     1.1133482575    -0.1102646714
Bq        -0.1122263684     0.9852993262     0.7500792954
Bq         0.1445622748     1.1275759165    -0.2058584455
Bq         0.0161679532     1.0564376214     0.2721104249
Bq        -0.0132019617     1.1411926564     0.3814447386
Bq         0.0381557670     1.1696479744     0.1902571904
Bq        -0.0388808260     1.1269649973     0.4770385127
Bq         0.0638346313     1.1838756335     0.0946634163
Bq        -0.0645596903     1.1127373383     0.5726322868
Bq         0.0895134956     1.1981032925    -0.0009303578
Bq        -0.0902385546     1.0985096793     0.6682260609
Bq         0.1151923600     1.2123309515    -0.0965241319
Bq        -0.1159174189     1.0842820203     0.7638198350
Bq         0.1408712243     1.2265586105    -0.1921179060
Bq         0.0124769027     1.1554203154     0.2858509645
Bq        -0.0168930122     1.2401753504     0.3951852782
Bq         0.0344647165     1.2686306685     0.2039977300
Bq        -0.0425718765     1.2259476914     0.4907790522
Bq         0.0601435808     1.2828583275     0.1084039559
Bq        -0.0682507408     1.2117200323     0.5863728263
Bq         0.0858224451     1.2970859865     0.0128101818
Bq        -0.0939296052     1.1974923733     0.6819666004
Bq         0.1115013094     1.3113136455    -0.0827835923
Bq        -0.1196084695     1.1832647143     0.7775603745
Bq         0.1371801737     1.3255413046    -0.1783773664
Bq         0.0087858521     1.2544030094     0.2995915041
Bq        -0.0205840627     1.3391580444     0.4089258177
Bq         0.0307736659     1.3676133625     0.2177382695
Bq        -0.0462629270     1.3249303854     0.5045195918
Bq         0.0564525302     1.3818410215     0.1221444954
Bq        -0.0719417914     1.3107027264     0.6001133659
Bq         0.0821313946     1.3960686806     0.0265507213
Bq        -0.0976206557     1.2964750674     0.6957071400
Bq         0.1078102589     1.4102963396    -0.0690430528
Bq        -0.1232995200     1.2822474083     0.7913009141
Bq         0.1334891232     1.4245239986    -0.1646368269
Bq         0.0050948016     1.3533857035     0.3133320436
Bq        -0.0242751133     1.4381407385     0.4226663573
Bq         0.0270826154     1.4665960565     0.2314788091
Bq        -0.0499539776     1.4239130794     0.5182601314
Bq         0.0527614797     1.4808237156     0.1358850350
Bq        -0.0756328419     1.4096854204     0.6138539055
Bq         0.0784403440     1.4950513746     0.0402912609
Bq        -0.1013117062     1.3954577614     0.7094476796
Bq         0.1041192084     1.5092790336    -0.0553025132
Bq        -0.1269905706     1.3812301024     0.8050414537
Bq         0.1297980727     1.5235066926    -0.1508962873
Bq         0.0014037511     1.4523683975     0.3270725832
Bq        -0.0279661638     1.5371234325     0.4364068968
Bq         0.0233915648     1.5655787506     0.2452193486
Bq        -0.0536450281     1.5228957735     0.5320006709
Bq         0.0490704292     1.5798064096     0.1496255745
Bq        -0.0793238924     1.5086681145     0.6275944450
Bq         0.0747492935     1.5940340686     0.0540318005
Bq        -0.1050027568     1.4944404554     0.7231882191
Bq         0.1004281578     1.6082617277    -0.0415619736
Bq        -0.1306816211     1.4802127964     0.8187819932
Bq         0.1261070221     1.6224893867    -0.1371557477
Bq        -0.0022872995     1.5513510915     0.3408131227
Bq        -0.0316572143     1.6361061265     0.4501474364
Bq         0.0197005143     1.6645614446     0.2589598882
Bq        -0.0573360787     1.6218784675     0.5457412105
Bq         0.0453793786     1.6787891036     0.1633661141
Bq        -0.0830149430     1.6076508085     0.6413349846
Bq         0.0710582430     1.6930167627     0.0677723400
Bq        -0.1086938073     1.5934231495     0.7369287587
Bq         0.0967371073     1.7072444217    -0.0278214341
Bq        -0.1343726716     1.5791954904     0.8325225328
Bq         0.1224159716     1.7214720807    -0.1234152082
Bq        -0.0059783500     1.6503337856     0.3545536623
Bq        -0.0353482649     1.7350888206     0.4638879759
Bq         0.0160094638     1.7635441386     0.2727004278
Bq        -0.0610271292     1.7208611616     0.5594817500
Bq         0.0416883281     1.7777717977     0.1771066537
Bq        -0.0867059935     1.7066335025     0.6550755241
Bq         0.0673671924     1.7919994567     0.0815128796
Bq        -0.1123848578     1.6924058435     0.7506692982
Bq         0.0930460567     1.8062271157    -0.0140808945
Bq        -0.1380637222     1.6781781845     0.8462630723
Bq         0.1187249211     1.8204547748    -0.1096746686

1
2
3
4
5
6
7
8
9
10
11
12
13
14
15
16
17
18
19
20
21
22
23
24
25
26
27
28
29
30
31
32
33
34
35
36
37
38
39
40
41
42
43
44
45
46
47
48
49
50
51
52
53
54
55
56
57
58
59
60
61
62
63
64
65
66
67
68
69
70
71
72
73
74
75
76
77
78
79
80
81
82
83
84
85
86
87
88
89
90
91
92
93
94
95
96
97
98
99
100
101
102
103
104
105
106
107
108
109
110
111
112
113
114
115
116
117
118
119
120
121
122
123
124
125
126
127
128
129
130
131
132
133
134
135
136
137
138
139
140
141
142
143
144
145
146
147
148
149
150
151
152
153
154
155
156
157
158
159
160
161
162
163
164
165
166
167
168
169
170
171
172
173
174
175
176
177
178
179
180
181
182
183
184
185
186
187
188
189
190
191
192
193
194
195
196
197
198
199
200
201
202
203
204
205
206
207
208
209
210
211
212
213
214
215
216
217
218
219
220
221
222
223
224
225
226
227
228
229
230
231
232
233
234
235
236

