%nproc=8
%mem=1000MB
# rb3lyp/6-311+g** NMR geom=connectivity

Title

0 1
C    -4.0500558   -0.5771862    0.8136712
H    -5.0263804   -1.0082727    1.0024760
C    -3.9381552    0.6617804    0.2400876
H    -4.8252424    1.2338890   -0.0111295
C    -2.6768410    1.2433246    0.0057578
C    -1.4974121    0.5051527    0.2848253
C    -1.6508332   -0.7338728    0.9404026
H    -0.7713646   -1.2730967    1.2633753
C    -2.8898548   -1.2624035    1.1994307
H    -2.9683706   -2.2124563    1.7152676
C    -2.5773185    2.5963696   -0.4192930
H    -3.4870728    3.1412239   -0.6474055
C    -1.3741895    3.2147896   -0.4364030
H    -1.2997315    4.2742019   -0.6578144
C    -0.1719488    2.4994090   -0.1734588
C    -0.2043917    1.1018437    0.0192689
C     1.0513491    3.2042560   -0.0676222
H     1.0427344    4.2819499   -0.1896997
C     2.1942091    2.5487446    0.2579577
H     3.1168527    3.0912848    0.4334727
C     2.2216473    1.1336562    0.2934990
C     1.0486931    0.3945528    0.0302412
C     3.4483363    0.4614633    0.5573939
H     4.3095794    1.0606054    0.8334846
C     3.5427346   -0.8855926    0.4749463
H     4.4731467   -1.3939704    0.7038822
C     2.4490052   -1.6474447   -0.0196319
C     1.2150704   -1.0057258   -0.3013573
C     0.2531113   -1.7434440   -1.0216591
H    -0.6541356   -1.2535051   -1.3462847
C     0.4494193   -3.0628597   -1.3413779
H    -0.3083162   -3.5944309   -1.9054060
C     1.6251726   -3.7207967   -0.9552541
H     1.7670048   -4.7687404   -1.1927019
C     2.6109872   -3.0144177   -0.3183050
H     3.5525612   -3.4902813   -0.0646367
Bq         1.5501563129     2.0604922207     0.7290065551
Bq         1.4731197199     2.0178092437     1.0157878773
Bq         1.5758351772     2.0747198798     0.6334127810
Bq         1.4474408556     2.0035815846     1.1113816514
Bq         1.6015140416     2.0889475388     0.5378190069
Bq         1.4217619913     1.9893539256     1.2069754255
Bq         1.6271929059     2.1031751978     0.4422252328
Bq         1.3960831270     1.9751262666     1.3025691996
Bq         1.6528717702     2.1174028569     0.3466314587
Bq         1.5244774486     2.0462645617     0.8246003292
Bq         1.4951075337     2.1310195967     0.9339346428
Bq         1.5464652624     2.1594749148     0.7427470946
Bq         1.4694286694     2.1167919377     1.0295284169
Bq         1.5721441267     2.1737025738     0.6471533205
Bq         1.4437498051     2.1025642787     1.1251221910
Bq         1.5978229910     2.1879302328     0.5515595464
Bq         1.4180709408     2.0883366196     1.2207159651
Bq         1.6235018553     2.2021578919     0.4559657723
Bq         1.3923920764     2.0741089606     1.3163097392
Bq         1.6491807197     2.2163855509     0.3603719982
Bq         1.5207863981     2.1452472558     0.8383408687
Bq         1.7762363105    -2.8181151051     0.2728504467
Bq         1.8275940392    -2.7896597870     0.0816628985
Bq         1.7505574462    -2.8323427641     0.3684442207
Bq         1.8532729035    -2.7754321280    -0.0139308756
Bq         1.7248785819    -2.8465704231     0.4640379948
Bq         1.8789517678    -2.7612044690    -0.1095246497
Bq         1.6991997176    -2.8607980821     0.5596317689
Bq         1.9046306322    -2.7469768099    -0.2051184238
Bq         1.6735208533    -2.8750257412     0.6552255430
Bq         1.9303094965    -2.7327491509    -0.3007121979
Bq         1.8019151749    -2.8038874460     0.1772566726
Bq         1.7725452600    -2.7191324110     0.2865909862
Bq         1.8239029887    -2.6906770930     0.0954034380
Bq         1.7468663957    -2.7333600701     0.3821847603
Bq         1.8495818530    -2.6764494339    -0.0001903361
Bq         1.7211875314    -2.7475877291     0.4777785344
Bq         1.8752607173    -2.6622217749    -0.0957841102
Bq         1.6955086670    -2.7618153881     0.5733723085
Bq         1.9009395816    -2.6479941159    -0.1913778843
Bq         1.6698298027    -2.7760430471     0.6689660826
Bq         1.9266184459    -2.6337664569    -0.2869716584
Bq         1.7982241243    -2.7049047520     0.1909972121
Bq         1.7688542095    -2.6201497170     0.3003315258
Bq         1.8202119381    -2.5916943989     0.1091439776
Bq         1.7431753452    -2.6343773760     0.3959252999
Bq         1.8458908024    -2.5774667399     0.0135502035
Bq         1.7174964808    -2.6486050350     0.4915190740
Bq         1.8715696668    -2.5632390809    -0.0820435706
Bq         1.6918176165    -2.6628326941     0.5871128481
Bq         1.8972485311    -2.5490114219    -0.1776373447
Bq         1.6661387522    -2.6770603531     0.6827066221
Bq         1.9229273954    -2.5347837628    -0.2732311188
Bq         1.7945330738    -2.6059220580     0.2047377517
Bq         1.7651631589    -2.5211670230     0.3140720653
Bq         1.8165208876    -2.4927117049     0.1228845171
Bq         1.7394842946    -2.5353946820     0.4096658394
Bq         1.8421997519    -2.4784840459     0.0272907430
Bq         1.7138054303    -2.5496223410     0.5052596135
Bq         1.8678786162    -2.4642563868    -0.0683030311
Bq         1.6881265660    -2.5638500000     0.6008533876
Bq         1.8935574806    -2.4500287278    -0.1638968051
Bq         1.6624477017    -2.5780776591     0.6964471617
Bq         1.9192363449    -2.4358010688    -0.2594905792
Bq         1.7908420233    -2.5069393639     0.2184782912
Bq         1.7614721084    -2.4221843289     0.3278126049
Bq         1.8128298371    -2.3937290109     0.1366250567
Bq         1.7357932441    -2.4364119879     0.4234063790
Bq         1.8385087014    -2.3795013518     0.0410312826
Bq         1.7101143798    -2.4506396470     0.5190001531
Bq         1.8641875657    -2.3652736928    -0.0545624915
Bq         1.6844355154    -2.4648673060     0.6145939272
Bq         1.8898664300    -2.3510460338    -0.1501562656
Bq         1.6587566511    -2.4790949650     0.7101877013
Bq         1.9155452943    -2.3368183748    -0.2457500397
Bq         1.7871509727    -2.4079566699     0.2322188308
Bq         1.7577810579    -2.3232016349     0.3415531444
Bq         1.8091387865    -2.2947463168     0.1503655963
Bq         1.7321021936    -2.3374292939     0.4371469185
Bq         1.8348176508    -2.2805186578     0.0547718222
Bq         1.7064233292    -2.3516569529     0.5327406926
Bq         1.8604965152    -2.2662909988    -0.0408219519
Bq         1.6807444649    -2.3658846120     0.6283344667
Bq         1.8861753795    -2.2520633397    -0.1364157260
Bq         1.6550656006    -2.3801122710     0.7239282408
Bq         1.9118542438    -2.2378356807    -0.2320095001
Bq         1.7834599222    -2.3089739759     0.2459593704
Bq         1.7540900073    -2.2242189408     0.3552936840
Bq         1.8054477360    -2.1957636228     0.1641061358
Bq         1.7284111430    -2.2384465999     0.4508874581
Bq         1.8311266003    -2.1815359638     0.0685123617
Bq         1.7027322787    -2.2526742589     0.5464812322
Bq         1.8568054646    -2.1673083047    -0.0270814124
Bq         1.6770534144    -2.2669019179     0.6420750063
Bq         1.8824843290    -2.1530806457    -0.1226751865
Bq         1.6513745500    -2.2811295770     0.7376687804
Bq         1.9081631933    -2.1388529867    -0.2182689606
Bq         1.7797688717    -2.2099912818     0.2596999099
Bq         1.7503989568    -2.1252362468     0.3690342236
Bq         1.8017566854    -2.0967809288     0.1778466754
Bq         1.7247200925    -2.1394639058     0.4646279977
Bq         1.8274355498    -2.0825532697     0.0822529013
Bq         1.6990412282    -2.1536915649     0.5602217718
Bq         1.8531144141    -2.0683256107    -0.0133408728
Bq         1.6733623638    -2.1679192239     0.6558155458
Bq         1.8787932784    -2.0540979517    -0.1089346469
Bq         1.6476834995    -2.1821468829     0.7514093199
Bq         1.9044721427    -2.0398702926    -0.2045284210
Bq         1.7760778211    -2.1110085878     0.2734404495
Bq         1.7467079063    -2.0262535528     0.3827747631
Bq         1.7980656349    -1.9977982347     0.1915872149
Bq         1.7210290419    -2.0404812118     0.4783685372
Bq         1.8237444992    -1.9835705757     0.0959934408
Bq         1.6953501776    -2.0547088708     0.5739623113
Bq         1.8494233636    -1.9693429167     0.0003996667
Bq         1.6696713133    -2.0689365299     0.6695560854
Bq         1.8751022279    -1.9551152576    -0.0951941074
Bq         1.6439924490    -2.0831641889     0.7651498595
Bq         1.9007810922    -1.9408875986    -0.1907878814
Bq         1.7723867706    -2.0120258937     0.2871809890
Bq         1.7430168557    -1.9272708587     0.3965153027
Bq         1.7943745844    -1.8988155407     0.2053277545
Bq         1.7173379914    -1.9414985178     0.4921090768
Bq         1.8200534487    -1.8845878817     0.1097339804
Bq         1.6916591271    -1.9557261768     0.5877028509
Bq         1.8457323130    -1.8703602226     0.0141402063
Bq         1.6659802628    -1.9699538358     0.6832966250
Bq         1.8714111773    -1.8561325636    -0.0814535678
Bq         1.6403013984    -1.9841814949     0.7788903991
Bq         1.8970900417    -1.8419049046    -0.1770473419
Bq         1.7686957201    -1.9130431997     0.3009215286
Bq         1.7393258052    -1.8282881647     0.4102558422
Bq         1.7906835338    -1.7998328466     0.2190682941
Bq         1.7136469409    -1.8425158237     0.5058496163
Bq         1.8163623982    -1.7856051876     0.1234745200
Bq         1.6879680766    -1.8567434828     0.6014433904
Bq         1.8420412625    -1.7713775286     0.0278807459
Bq         1.6622892122    -1.8709711418     0.6970371645
Bq         1.8677201268    -1.7571498696    -0.0677130282
Bq         1.6366103479    -1.8851988008     0.7926309386
Bq         1.8933989911    -1.7429222105    -0.1633068023
Bq         1.7650046695    -1.8140605057     0.3146620681
Bq         1.7356347547    -1.7293054707     0.4239963818
Bq         1.7869924833    -1.7008501526     0.2328088336
Bq         1.7099558903    -1.7435331297     0.5195901559
Bq         1.8126713476    -1.6866224936     0.1372150595
Bq         1.6842770260    -1.7577607887     0.6151839300
Bq         1.8383502120    -1.6723948346     0.0416212854
Bq         1.6585981617    -1.7719884478     0.7107777041
Bq         1.8640290763    -1.6581671755    -0.0539724887
Bq         1.6329192974    -1.7862161068     0.8063714782
Bq         1.8897079406    -1.6439395165    -0.1495662628
Bq         1.7613136190    -1.7150778116     0.3284026077
Bq         1.7319437041    -1.6303227766     0.4377369214
Bq         1.7833014328    -1.6018674586     0.2465493732
Bq         1.7062648398    -1.6445504357     0.5333306955
Bq         1.8089802971    -1.5876397995     0.1509555991
Bq         1.6805859755    -1.6587780947     0.6289244695
Bq         1.8346591614    -1.5734121405     0.0553618250
Bq         1.6549071112    -1.6730057537     0.7245182436
Bq         1.8603380257    -1.5591844815    -0.0402319491
Bq         1.6292282468    -1.6872334127     0.8201120177
Bq         1.8860168901    -1.5449568225    -0.1358257232
Bq         1.7576225684    -1.6160951176     0.3421431473
Bq         1.7282526536    -1.5313400826     0.4514774609
Bq         1.7796103822    -1.5028847645     0.2602899127
Bq         1.7025737893    -1.5455677416     0.5470712350
Bq         1.8052892466    -1.4886571055     0.1646961386
Bq         1.6768949249    -1.5597954007     0.6426650091
Bq         1.8309681109    -1.4744294465     0.0691023645
Bq         1.6512160606    -1.5740230597     0.7382587832
Bq         1.8566469752    -1.4602017875    -0.0264914096
Bq         1.6255371963    -1.5882507187     0.8338525573
Bq         1.8823258395    -1.4459741284    -0.1220851837
Bq         1.7539315179    -1.5171124236     0.3558836868
Bq         1.7245616031    -1.4323573886     0.4652180005
Bq         1.7759193317    -1.4039020705     0.2740304523
Bq         1.6988827387    -1.4465850476     0.5608117746
Bq         1.8015981960    -1.3896744115     0.1784366782
Bq         1.6732038744    -1.4608127066     0.6564055487
Bq         1.8272770603    -1.3754467524     0.0828429041
Bq         1.6475250101    -1.4750403656     0.7519993228
Bq         1.8529559247    -1.3612190934    -0.0127508700
Bq         1.6218461458    -1.4892680247     0.8475930969
Bq         1.8786347890    -1.3469914344    -0.1083446441
Bq         1.7502404674    -1.4181297295     0.3696242264
Bq         1.7208705525    -1.3333746945     0.4789585400
Bq         1.7722282812    -1.3049193765     0.2877709918
Bq         1.6951916882    -1.3476023536     0.5745523141
Bq         1.7979071455    -1.2906917174     0.1921772178
Bq         1.6695128239    -1.3618300126     0.6701460882
Bq         1.8235860098    -1.2764640584     0.0965834437
Bq         1.6438339596    -1.3760576716     0.7657398623
Bq         1.8492648741    -1.2622363994     0.0009896696
Bq         1.6181550952    -1.3902853306     0.8613336364
Bq         1.8749437385    -1.2480087404    -0.0946041045
Bq         1.7465494168    -1.3191470355     0.3833647659
Bq         1.7171795020    -1.2343920005     0.4926990796
Bq         1.7685372306    -1.2059366824     0.3015115314
Bq         1.6915006377    -1.2486196595     0.5882928537

1
2
3
4
5
6
7
8
9
10
11
12
13
14
15
16
17
18
19
20
21
22
23
24
25
26
27
28
29
30
31
32
33
34
35
36
37
38
39
40
41
42
43
44
45
46
47
48
49
50
51
52
53
54
55
56
57
58
59
60
61
62
63
64
65
66
67
68
69
70
71
72
73
74
75
76
77
78
79
80
81
82
83
84
85
86
87
88
89
90
91
92
93
94
95
96
97
98
99
100
101
102
103
104
105
106
107
108
109
110
111
112
113
114
115
116
117
118
119
120
121
122
123
124
125
126
127
128
129
130
131
132
133
134
135
136
137
138
139
140
141
142
143
144
145
146
147
148
149
150
151
152
153
154
155
156
157
158
159
160
161
162
163
164
165
166
167
168
169
170
171
172
173
174
175
176
177
178
179
180
181
182
183
184
185
186
187
188
189
190
191
192
193
194
195
196
197
198
199
200
201
202
203
204
205
206
207
208
209
210
211
212
213
214
215
216
217
218
219
220
221
222
223
224
225
226
227
228
229
230
231
232
233
234
235
236

