%nproc=8
%mem=1000MB
# rb3lyp/6-311+g** NMR geom=connectivity

Title

0 1
C    -4.0500558   -0.5771862    0.8136712
H    -5.0263804   -1.0082727    1.0024760
C    -3.9381552    0.6617804    0.2400876
H    -4.8252424    1.2338890   -0.0111295
C    -2.6768410    1.2433246    0.0057578
C    -1.4974121    0.5051527    0.2848253
C    -1.6508332   -0.7338728    0.9404026
H    -0.7713646   -1.2730967    1.2633753
C    -2.8898548   -1.2624035    1.1994307
H    -2.9683706   -2.2124563    1.7152676
C    -2.5773185    2.5963696   -0.4192930
H    -3.4870728    3.1412239   -0.6474055
C    -1.3741895    3.2147896   -0.4364030
H    -1.2997315    4.2742019   -0.6578144
C    -0.1719488    2.4994090   -0.1734588
C    -0.2043917    1.1018437    0.0192689
C     1.0513491    3.2042560   -0.0676222
H     1.0427344    4.2819499   -0.1896997
C     2.1942091    2.5487446    0.2579577
H     3.1168527    3.0912848    0.4334727
C     2.2216473    1.1336562    0.2934990
C     1.0486931    0.3945528    0.0302412
C     3.4483363    0.4614633    0.5573939
H     4.3095794    1.0606054    0.8334846
C     3.5427346   -0.8855926    0.4749463
H     4.4731467   -1.3939704    0.7038822
C     2.4490052   -1.6474447   -0.0196319
C     1.2150704   -1.0057258   -0.3013573
C     0.2531113   -1.7434440   -1.0216591
H    -0.6541356   -1.2535051   -1.3462847
C     0.4494193   -3.0628597   -1.3413779
H    -0.3083162   -3.5944309   -1.9054060
C     1.6251726   -3.7207967   -0.9552541
H     1.7670048   -4.7687404   -1.1927019
C     2.6109872   -3.0144177   -0.3183050
H     3.5525612   -3.4902813   -0.0646367
Bq        -1.3536690775     1.4749037474     0.8061689851
Bq        -1.3306171895     1.3276078431     0.2249869766
Bq        -1.3575110588     1.4994530647     0.9030326532
Bq        -1.3267752082     1.3030585257     0.1281233085
Bq        -1.3613530401     1.5240023821     0.9998963213
Bq        -1.3229332268     1.2785092084     0.0312596404
Bq        -1.3421431335     1.4012557952     0.5155779809
Bq        -1.3450121606     1.5227449446     0.5879116195
Bq        -1.3373281979     1.4736463098     0.3941842834
Bq        -1.3488541419     1.5472942619     0.6847752876
Bq        -1.3334862166     1.4490969924     0.2973206153
Bq        -1.3526961233     1.5718435793     0.7816389557
Bq        -1.3296442353     1.4245476751     0.2004569472
Bq        -1.3565381046     1.5963928967     0.8785026238
Bq        -1.3258022540     1.3999983577     0.1035932791
Bq        -1.3603800859     1.6209422141     0.9753662919
Bq        -1.3219602726     1.3754490403     0.0067296110
Bq        -1.3411701793     1.4981956272     0.4910479514
Bq        -1.3440392064     1.6196847765     0.5633815901
Bq        -1.3363552437     1.5705861417     0.3696542539
Bq        -1.3478811877     1.6442340939     0.6602452582
Bq        -1.3325132624     1.5460368244     0.2727905858
Bq        -1.3517231690     1.6687834113     0.7571089263
Bq        -1.3286712811     1.5214875070     0.1759269178
Bq        -1.3555651504     1.6933327286     0.8539725944
Bq        -1.3248292997     1.4969381896     0.0790632497
Bq        -1.3594071317     1.7178820460     0.9508362625
Bq        -1.3209873184     1.4723888722    -0.0178004184
Bq        -1.3401972250     1.5951354591     0.4665179220
Bq        -1.3430662521     1.7166246084     0.5388515607
Bq        -1.3353822895     1.6675259737     0.3451242245
Bq        -1.3469082335     1.7411739258     0.6357152288
Bq        -1.3315403082     1.6429766563     0.2482605564
Bq        -1.3507502148     1.7657232432     0.7325788969
Bq        -1.3276983268     1.6184273389     0.1513968883
Bq        -1.3545921961     1.7902725606     0.8294425650
Bq        -1.3238563455     1.5938780216     0.0545332202
Bq        -1.3584341775     1.8148218779     0.9263062330
Bq        -1.3200143642     1.5693287042    -0.0423304479
Bq        -1.3392242708     1.6920752911     0.4419878926
Bq        -1.3420932979     1.8135644404     0.5143215313
Bq        -1.3344093353     1.7644658056     0.3205941951
Bq        -1.3459352793     1.8381137578     0.6111851993
Bq        -1.3305673539     1.7399164882     0.2237305270
Bq        -1.3497772606     1.8626630751     0.7080488674
Bq        -1.3267253726     1.7153671709     0.1268668589
Bq        -1.3536192419     1.8872123925     0.8049125355
Bq        -1.3228833913     1.6908178535     0.0300031908
Bq        -1.3574612232     1.9117617099     0.9017762036
Bq        -1.3190414099     1.6662685361    -0.0668604773
Bq        -1.3382513166     1.7890151230     0.4174578632
Bq        -1.3411203437     1.9105042723     0.4897915018
Bq        -1.3334363810     1.8614056376     0.2960641657
Bq        -1.3449623250     1.9350535897     0.5866551699
Bq        -1.3295943997     1.8368563202     0.1992004976
Bq        -1.3488043064     1.9596029071     0.6835188380
Bq        -1.3257524184     1.8123070028     0.1023368295
Bq        -1.3526462877     1.9841522244     0.7803825061
Bq        -1.3219104371     1.7877576854     0.0054731614
Bq        -1.3564882690     2.0087015418     0.8772461742
Bq        -1.3180684557     1.7632083681    -0.0913905067
Bq        -1.3372783624     1.8859549549     0.3929278337
Bq        -1.3401473895     2.0074441043     0.4652614724
Bq        -1.3324634268     1.9583454695     0.2715341362
Bq        -1.3439893708     2.0319934216     0.5621251405
Bq        -1.3286214455     1.9337961521     0.1746704681
Bq        -1.3478313521     2.0565427390     0.6589888086
Bq        -1.3247794642     1.9092468348     0.0778068000
Bq        -1.3516733335     2.0810920564     0.7558524767
Bq        -1.3209374828     1.8846975174    -0.0190568680
Bq        -1.3555153148     2.1056413738     0.8527161448
Bq        -1.3170955015     1.8601482000    -0.1159205361
Bq        -1.3363054081     1.9828947869     0.3683978043
Bq        -1.3391744353     2.1043839362     0.4407314430
Bq        -1.3314904726     2.0552853014     0.2470041068
Bq        -1.3430164166     2.1289332536     0.5375951111
Bq        -1.3276484913     2.0307359841     0.1501404387
Bq        -1.3468583979     2.1534825709     0.6344587792
Bq        -1.3238065099     2.0061866667     0.0532767706
Bq        -1.3507003792     2.1780318883     0.7313224472
Bq        -1.3199645286     1.9816373493    -0.0435868975
Bq        -1.3545423606     2.2025812057     0.8281861153
Bq        -1.3161225473     1.9570880319    -0.1404505656
Bq        -1.3353324539     2.0798346188     0.3438677749
Bq        -1.3382014810     2.2013237681     0.4162014135
Bq        -1.3305175184     2.1522251334     0.2224740774
Bq        -1.3420434624     2.2258730855     0.5130650816
Bq        -1.3266755370     2.1276758160     0.1256104093
Bq        -1.3458854437     2.2504224029     0.6099287497
Bq        -1.3228335557     2.1031264986     0.0287467412
Bq        -1.3497274250     2.2749717203     0.7067924178
Bq        -1.3189915744     2.0785771813    -0.0681169269
Bq        -1.3535694063     2.2995210376     0.8036560859
Bq        -1.3151495931     2.0540278639    -0.1649805950
Bq        -1.3343594997     2.1767744508     0.3193377455
Bq        -1.3372285268     2.2982636001     0.3916713841
Bq        -1.3295445641     2.2491649653     0.1979440479
Bq        -1.3410705081     2.3228129174     0.4885350522
Bq        -1.3257025828     2.2246156479     0.1010803799
Bq        -1.3449124895     2.3473622348     0.5853987203
Bq        -1.3218606015     2.2000663306     0.0042167118
Bq        -1.3487544708     2.3719115522     0.6822623884
Bq        -1.3180186202     2.1755170132    -0.0926469563
Bq        -1.3525964521     2.3964608696     0.7791260565
Bq        -1.3141766388     2.1509676958    -0.1895106244
Bq        -1.3333865455     2.2737142827     0.2948077160
Bq        -1.3362555726     2.3952034320     0.3671413547
Bq        -1.3285716099     2.3461047973     0.1734140185
Bq        -1.3400975539     2.4197527494     0.4640050228
Bq        -1.3247296286     2.3215554799     0.0765503504
Bq        -1.3439395352     2.4443020668     0.5608686909
Bq        -1.3208876473     2.2970061625    -0.0203133177
Bq        -1.3477815166     2.4688513841     0.6577323590
Bq        -1.3170456659     2.2724568451    -0.1171769858
Bq        -1.3516234979     2.4934007015     0.7545960271
Bq        -1.3132036846     2.2479075278    -0.2140406538
Bq        -1.3324135912     2.3706541146     0.2702776866
Bq        -1.3352826184     2.4921432640     0.3426113253
Bq        -1.3275986557     2.4430446292     0.1488839891
Bq        -1.3391245997     2.5166925813     0.4394749934
Bq        -1.3237566744     2.4184953118     0.0520203210
Bq        -1.3429665810     2.5412418987     0.5363386614
Bq        -1.3199146930     2.3939459944    -0.0448433471
Bq        -1.3468085623     2.5657912161     0.6332023295
Bq        -1.3160727117     2.3693966771    -0.1417070152
Bq        -1.3506505437     2.5903405335     0.7300659976
Bq        -1.3122307304     2.3448473597    -0.2385706833
Bq        -1.3314406370     2.4675939466     0.2457476572
Bq        -1.3343096641     2.5890830959     0.3180812958
Bq        -1.3266257015     2.5399844611     0.1243539597
Bq        -1.3381516455     2.6136324133     0.4149449639
Bq        -1.3227837201     2.5154351438     0.0274902916
Bq        -1.3419936268     2.6381817306     0.5118086320
Bq        -1.3189417388     2.4908858264    -0.0693733765
Bq        -1.3458356081     2.6627310480     0.6086723001
Bq        -1.3150997575     2.4663365090    -0.1662370446
Bq        -1.3496775894     2.6872803654     0.7055359682
Bq        -1.3112577762     2.4417871916    -0.2631007127
Bq        -1.3304676828     2.5645337785     0.2212176278
Bq        -1.3333367099     2.6860229278     0.2935512664
Bq        -1.3256527472     2.6369242931     0.0998239302
Bq        -1.3371786912     2.7105722452     0.3904149345
Bq        -1.3218107659     2.6123749757     0.0029602621
Bq        -1.3410206726     2.7351215626     0.4872786026
Bq        -1.3179687846     2.5878256583    -0.0939034059
Bq        -1.3448626539     2.7596708800     0.5841422707
Bq        -1.3141268033     2.5632763409    -0.1907670740
Bq        -1.3487046352     2.7842201973     0.6810059388
Bq        -1.3102848219     2.5387270236    -0.2876307421
Bq        -1.3294947286     2.6614736105     0.1966875983
Bq        -1.3323637557     2.7829627598     0.2690212370
Bq        -1.3246797930     2.7338641250     0.0752939008
Bq        -1.3362057370     2.8075120771     0.3658849051
Bq        -1.3208378117     2.7093148076    -0.0215697673
Bq        -1.3400477183     2.8320613945     0.4627485732
Bq        -1.3169958304     2.6847654903    -0.1184334354
Bq        -1.3438896997     2.8566107119     0.5596122413
Bq        -1.3131538490     2.6602161729    -0.2152971035
Bq        -1.3477316810     2.8811600293     0.6564759093
Bq        -1.3093118677     2.6356668555    -0.3121607716
Bq        -1.3285217744     2.7584134424     0.1721575689
Bq        -1.3313908015     2.8799025917     0.2444912076
Bq        -1.3237068388     2.8308039570     0.0507638714
Bq        -1.3352327828     2.9044519091     0.3413548756
Bq        -1.3198648575     2.8062546396    -0.0460997967
Bq        -1.3390747641     2.9290012265     0.4382185437
Bq        -1.3160228761     2.7817053222    -0.1429634648
Bq        -1.3429167454     2.9535505438     0.5350822118
Bq        -1.3121808948     2.7571560048    -0.2398271329
Bq        -1.3467587268     2.9780998612     0.6319458799
Bq        -1.3083389135     2.7326066875    -0.3366908010
Bq        -1.3275488201     2.8553532743     0.1476275395
Bq        -1.3304178472     2.9768424236     0.2199611781
Bq        -1.3227338846     2.9277437889     0.0262338420
Bq        -1.3342598286     3.0013917410     0.3168248462
Bq        -1.3188919032     2.9031944715    -0.0706298261
Bq        -1.3381018099     3.0259410584     0.4136885143
Bq        -1.3150499219     2.8786451541    -0.1674934942
Bq        -1.3419437912     3.0504903758     0.5105521824
Bq        -1.3112079406     2.8540958368    -0.2643571623
Bq        -1.3457857725     3.0750396931     0.6074158505
Bq        -1.3073659593     2.8295465194    -0.3612208304
Bq        -1.3265758659     2.9522931063     0.1230975100
Bq        -1.3294448930     3.0737822556     0.1954311487
Bq        -1.3217609303     3.0246836208     0.0017038125
Bq        -1.3332868743     3.0983315730     0.2922948168
Bq        -1.3179189490     3.0001343035    -0.0951598556
Bq        -1.3371288557     3.1228808903     0.3891584849
Bq        -1.3140769677     2.9755849861    -0.1920235237
Bq        -1.3409708370     3.1474302077     0.4860221530
Bq        -1.3102349864     2.9510356687    -0.2888871917
Bq        -1.3448128183     3.1719795251     0.5828858211
Bq        -1.3063930050     2.9264863513    -0.3857508598
Bq        -1.3256029117     3.0492329382     0.0985674806
Bq        -1.3284719388     3.1707220875     0.1709011193
Bq        -1.3207879761     3.1216234528    -0.0228262169
Bq        -1.3323139201     3.1952714049     0.2677647874
Bq        -1.3169459948     3.0970741354    -0.1196898850
Bq        -1.3361559014     3.2198207223     0.3646284555
Bq        -1.3131040135     3.0725248180    -0.2165535531

1
2
3
4
5
6
7
8
9
10
11
12
13
14
15
16
17
18
19
20
21
22
23
24
25
26
27
28
29
30
31
32
33
34
35
36
37
38
39
40
41
42
43
44
45
46
47
48
49
50
51
52
53
54
55
56
57
58
59
60
61
62
63
64
65
66
67
68
69
70
71
72
73
74
75
76
77
78
79
80
81
82
83
84
85
86
87
88
89
90
91
92
93
94
95
96
97
98
99
100
101
102
103
104
105
106
107
108
109
110
111
112
113
114
115
116
117
118
119
120
121
122
123
124
125
126
127
128
129
130
131
132
133
134
135
136
137
138
139
140
141
142
143
144
145
146
147
148
149
150
151
152
153
154
155
156
157
158
159
160
161
162
163
164
165
166
167
168
169
170
171
172
173
174
175
176
177
178
179
180
181
182
183
184
185
186
187
188
189
190
191
192
193
194
195
196
197
198
199
200
201
202
203
204
205
206
207
208
209
210
211
212
213
214
215
216
217
218
219
220
221
222
223
224
225
226
227
228
229
230
231
232
233
234
235
236

