%nproc=8
%mem=1000MB
# rb3lyp/6-311+g** NMR geom=connectivity

Title

0 1
C    -4.0500558   -0.5771862    0.8136712
H    -5.0263804   -1.0082727    1.0024760
C    -3.9381552    0.6617804    0.2400876
H    -4.8252424    1.2338890   -0.0111295
C    -2.6768410    1.2433246    0.0057578
C    -1.4974121    0.5051527    0.2848253
C    -1.6508332   -0.7338728    0.9404026
H    -0.7713646   -1.2730967    1.2633753
C    -2.8898548   -1.2624035    1.1994307
H    -2.9683706   -2.2124563    1.7152676
C    -2.5773185    2.5963696   -0.4192930
H    -3.4870728    3.1412239   -0.6474055
C    -1.3741895    3.2147896   -0.4364030
H    -1.2997315    4.2742019   -0.6578144
C    -0.1719488    2.4994090   -0.1734588
C    -0.2043917    1.1018437    0.0192689
C     1.0513491    3.2042560   -0.0676222
H     1.0427344    4.2819499   -0.1896997
C     2.1942091    2.5487446    0.2579577
H     3.1168527    3.0912848    0.4334727
C     2.2216473    1.1336562    0.2934990
C     1.0486931    0.3945528    0.0302412
C     3.4483363    0.4614633    0.5573939
H     4.3095794    1.0606054    0.8334846
C     3.5427346   -0.8855926    0.4749463
H     4.4731467   -1.3939704    0.7038822
C     2.4490052   -1.6474447   -0.0196319
C     1.2150704   -1.0057258   -0.3013573
C     0.2531113   -1.7434440   -1.0216591
H    -0.6541356   -1.2535051   -1.3462847
C     0.4494193   -3.0628597   -1.3413779
H    -0.3083162   -3.5944309   -1.9054060
C     1.6251726   -3.7207967   -0.9552541
H     1.7670048   -4.7687404   -1.1927019
C     2.6109872   -3.0144177   -0.3183050
H     3.5525612   -3.4902813   -0.0646367
Bq         2.2743989689    -1.3320742746     0.1496201937
Bq         1.9156430948    -1.5716151346     0.9395027161
Bq         2.3142607327    -1.3054586235     0.0618554689
Bq         2.1149519138    -1.4385368790     0.5006790925
Bq         2.0640836766    -1.3687595474     0.6126770677
Bq         2.1438072042    -1.3155282452     0.4371476183
Bq         2.0242219128    -1.3953751985     0.7004417924
Bq         2.1836689680    -1.2889125941     0.3493828935
Bq         1.9843601490    -1.4219908496     0.7882065171
Bq         2.2235307317    -1.2622969430     0.2616181688
Bq         1.9444983852    -1.4486065008     0.8759712418
Bq         2.2633924955    -1.2356812919     0.1738534441
Bq         1.9046366214    -1.4752221519     0.9637359665
Bq         2.3032542593    -1.2090656408     0.0860887194
Bq         2.1039454404    -1.3421438963     0.5249123430
Bq         2.0530772032    -1.2723665647     0.6369103181
Bq         2.1328007308    -1.2191352625     0.4613808687
Bq         2.0132154394    -1.2989822158     0.7246750429
Bq         2.1726624946    -1.1925196114     0.3736161440
Bq         1.9733536756    -1.3255978669     0.8124397676
Bq         2.2125242584    -1.1659039603     0.2858514193
Bq         1.9334919119    -1.3522135180     0.9002044923
Bq         2.2523860222    -1.1392883092     0.1980866946
Bq         1.8936301481    -1.3788291691     0.9879692170
Bq         2.2922477859    -1.1126726581     0.1103219699
Bq         2.0929389670    -1.2457509136     0.5491455934
Bq         2.0420707298    -1.1759735820     0.6611435686
Bq         2.1217942574    -1.1227422798     0.4856141192
Bq         2.0022089661    -1.2025892331     0.7489082933
Bq         2.1616560212    -1.0961266287     0.3978493945
Bq         1.9623472023    -1.2292048842     0.8366730180
Bq         2.2015177850    -1.0695109776     0.3100846697
Bq         1.9224854385    -1.2558205353     0.9244377427
Bq         2.2413795488    -1.0428953265     0.2223199450
Bq         1.8826236747    -1.2824361864     1.0122024675
Bq         2.2812413126    -1.0162796754     0.1345552203
Bq         2.0819324936    -1.1493579309     0.5733788439
Bq         2.0310642565    -1.0795805993     0.6853768191
Bq         2.1107877841    -1.0263492971     0.5098473696
Bq         1.9912024927    -1.1061962504     0.7731415438
Bq         2.1506495478    -0.9997336460     0.4220826449
Bq         1.9513407289    -1.1328119015     0.8609062685
Bq         2.1905113116    -0.9731179949     0.3343179202
Bq         1.9114789651    -1.1594275526     0.9486709932
Bq         2.2303730754    -0.9465023438     0.2465531955
Bq         1.8716172013    -1.1860432037     1.0364357179
Bq         2.2702348392    -0.9198866927     0.1587884708
Bq         2.0709260203    -1.0529649482     0.5976120943
Bq         2.0200577831    -0.9831876166     0.7096100695
Bq         2.0997813107    -0.9299563144     0.5340806201
Bq         1.9801960193    -1.0098032677     0.7973747942
Bq         2.1396430745    -0.9033406633     0.4463158954
Bq         1.9403342555    -1.0364189188     0.8851395189
Bq         2.1795048383    -0.8767250122     0.3585511707
Bq         1.9004724917    -1.0630345699     0.9729042437
Bq         2.2193666020    -0.8501093610     0.2707864460
Bq         1.8606107280    -1.0896502210     1.0606689684
Bq         2.2592283658    -0.8234937099     0.1830217212
Bq         2.0599195469    -0.9565719655     0.6218453448
Bq         2.0090513097    -0.8867946339     0.7338433200
Bq         2.0887748373    -0.8335633317     0.5583138705
Bq         1.9691895459    -0.9134102850     0.8216080447
Bq         2.1286366011    -0.8069476805     0.4705491458
Bq         1.9293277822    -0.9400259361     0.9093727694
Bq         2.1684983649    -0.7803320294     0.3827844211
Bq         1.8894660184    -0.9666415872     0.9971374941
Bq         2.2083601287    -0.7537163783     0.2950196964
Bq         1.8496042546    -0.9932572383     1.0849022188
Bq         2.2482218925    -0.7271007272     0.2072549717
Bq         2.0489130735    -0.8601789828     0.6460785953
Bq         1.9980448364    -0.7904016512     0.7580765704
Bq         2.0777683639    -0.7371703489     0.5825471210
Bq         1.9581830726    -0.8170173023     0.8458412951
Bq         2.1176301277    -0.7105546978     0.4947823963
Bq         1.9183213088    -0.8436329534     0.9336060199
Bq         2.1574918915    -0.6839390467     0.4070176716
Bq         1.8784595450    -0.8702486045     1.0213707446
Bq         2.1973536553    -0.6573233956     0.3192529469
Bq         1.8385977812    -0.8968642556     1.1091354693
Bq         2.2372154191    -0.6307077445     0.2314882222
Bq         2.0379066001    -0.7637860000     0.6703118457
Bq         1.9870383630    -0.6940086684     0.7823098209
Bq         2.0667618906    -0.6407773662     0.6067803715
Bq         1.9471765992    -0.7206243196     0.8700745456
Bq         2.1066236543    -0.6141617151     0.5190156468
Bq         1.9073148354    -0.7472399707     0.9578392703
Bq         2.1464854181    -0.5875460640     0.4312509220
Bq         1.8674530716    -0.7738556218     1.0456039950
Bq         2.1863471819    -0.5609304129     0.3434861973
Bq         1.8275913078    -0.8004712729     1.1333687197
Bq         2.2262089457    -0.5343147618     0.2557214726
Bq         2.0269001268    -0.6673930173     0.6945450962
Bq         1.9760318896    -0.5976156857     0.8065430713
Bq         2.0557554172    -0.5443843835     0.6310136219
Bq         1.9361701258    -0.6242313368     0.8943077961
Bq         2.0956171810    -0.5177687324     0.5432488972
Bq         1.8963083620    -0.6508469879     0.9820725208
Bq         2.1354789448    -0.4911530813     0.4554841725
Bq         1.8564465983    -0.6774626391     1.0698372455
Bq         2.1753407086    -0.4645374302     0.3677194478
Bq         1.8165848345    -0.7040782902     1.1576019702
Bq         2.2152024723    -0.4379217791     0.2799547231
Bq         2.0158936534    -0.5710000346     0.7187783466
Bq         1.9650254162    -0.5012227030     0.8307763218
Bq         2.0447489438    -0.4479914008     0.6552468724
Bq         1.9251636525    -0.5278383541     0.9185410465
Bq         2.0846107076    -0.4213757497     0.5674821477
Bq         1.8853018887    -0.5544540052     1.0063057712
Bq         2.1244724714    -0.3947600986     0.4797174230
Bq         1.8454401249    -0.5810696563     1.0940704959
Bq         2.1643342352    -0.3681444475     0.3919526982
Bq         1.8055783611    -0.6076853074     1.1818352207
Bq         2.2041959990    -0.3415287964     0.3041879735
Bq         2.0048871800    -0.4746070519     0.7430115971
Bq         1.9540189429    -0.4048297203     0.8550095723
Bq         2.0337424704    -0.3515984181     0.6794801228
Bq         1.9141571791    -0.4314453714     0.9427742970
Bq         2.0736042342    -0.3249827670     0.5917153981
Bq         1.8742954153    -0.4580610225     1.0305390217
Bq         2.1134659980    -0.2983671159     0.5039506734
Bq         1.8344336515    -0.4846766736     1.1183037464
Bq         2.1533277618    -0.2717514648     0.4161859487
Bq         1.7945718877    -0.5112923247     1.2060684711
Bq         2.1931895256    -0.2451358137     0.3284212240
Bq         1.9938807067    -0.3782140692     0.7672448476
Bq         1.9430124695    -0.3084367376     0.8792428227
Bq         2.0227359971    -0.2552054354     0.7037133733
Bq         1.9031507057    -0.3350523887     0.9670075474
Bq         2.0625977609    -0.2285897843     0.6159486486
Bq         1.8632889419    -0.3616680398     1.0547722721
Bq         2.1024595246    -0.2019741332     0.5281839239
Bq         1.8234271781    -0.3882836909     1.1425369969
Bq         2.1423212884    -0.1753584821     0.4404191992
Bq         1.7835654143    -0.4148993420     1.2303017216
Bq         2.1821830522    -0.1487428310     0.3526544744
Bq         1.9828742333    -0.2818210865     0.7914780980
Bq         1.9320059961    -0.2120437549     0.9034760732
Bq         2.0117295237    -0.1588124527     0.7279466238
Bq         1.8921442323    -0.2386594060     0.9912407979
Bq         2.0515912875    -0.1321968016     0.6401818990
Bq         1.8522824686    -0.2652750571     1.0790055226
Bq         2.0914530513    -0.1055811505     0.5524171743
Bq         1.8124207048    -0.2918907082     1.1667702473
Bq         2.1313148151    -0.0789654993     0.4646524496
Bq         1.7725589410    -0.3185063593     1.2545349720
Bq         2.1711765789    -0.0523498482     0.3768877249
Bq         1.9718677599    -0.1854281038     0.8157113485
Bq         1.9209995228    -0.1156507722     0.9277093236
Bq         2.0007230503    -0.0624194700     0.7521798742
Bq         1.8811377590    -0.1422664233     1.0154740484
Bq         2.0405848141    -0.0358038189     0.6644151495
Bq         1.8412759952    -0.1688820744     1.1032387731
Bq         2.0804465779    -0.0091881677     0.5766504248
Bq         1.8014142314    -0.1954977255     1.1910034978
Bq         2.1203083417     0.0174274834     0.4888857001
Bq         1.7615524676    -0.2221133766     1.2787682225
Bq         2.1601701055     0.0440431345     0.4011209754
Bq         1.9608612865    -0.0890351211     0.8399445989
Bq         2.5623720647    -4.9352999078    -0.2425998116
Bq         2.6420955922    -4.8820686056    -0.4181292611
Bq         2.5225103009    -4.9619155589    -0.1548350869
Bq         2.6819573560    -4.8554529545    -0.5058939858
Bq         2.4826485371    -4.9885312100    -0.0670703622
Bq         2.7218191198    -4.8288373034    -0.5936587105
Bq         2.4427867733    -5.0151468611     0.0206943625
Bq         2.7616808836    -4.8022216522    -0.6814234352
Bq         2.4029250095    -5.0417625122     0.1084590872
Bq         2.8015426474    -4.7756060011    -0.7691881599
Bq         2.6022338285    -4.9086842567    -0.3303645363
Bq         2.5513655913    -4.8389069251    -0.2183665612
Bq         2.6310891189    -4.7856756229    -0.3938960106
Bq         2.5115038275    -4.8655225762    -0.1306018365
Bq         2.6709508827    -4.7590599717    -0.4816607353
Bq         2.4716420637    -4.8921382273    -0.0428371118
Bq         2.7108126465    -4.7324443206    -0.5694254600
Bq         2.4317802999    -4.9187538784     0.0449276130
Bq         2.7506744102    -4.7058286695    -0.6571901847
Bq         2.3919185362    -4.9453695295     0.1326923377
Bq         2.7905361740    -4.6792130184    -0.7449549095
Bq         2.5912273551    -4.8122912740    -0.3061312859
Bq         2.5403591179    -4.7425139424    -0.1941333107
Bq         2.6200826455    -4.6892826401    -0.3696627601
Bq         2.5004973541    -4.7691295935    -0.1063685860
Bq         2.6599444093    -4.6626669890    -0.4574274849
Bq         2.4606355904    -4.7957452446    -0.0186038613
Bq         2.6998061731    -4.6360513379    -0.5451922096
Bq         2.4207738266    -4.8223608957     0.0691608634
Bq         2.7396679369    -4.6094356868    -0.6329569343
Bq         2.3809120628    -4.8489765468     0.1569255881
Bq         2.7795297007    -4.5828200357    -0.7207216590
Bq         2.5802208817    -4.7158982912    -0.2818980354
Bq         2.5293526446    -4.6461209596    -0.1699000603
Bq         2.6090761721    -4.5928896574    -0.3454295097
Bq         2.4894908808    -4.6727366108    -0.0821353355
Bq         2.6489379359    -4.5662740063    -0.4331942344
Bq         2.4496291170    -4.6993522619     0.0056293892
Bq         2.6887996997    -4.5396583552    -0.5209589591
Bq         2.4097673532    -4.7259679130     0.0933941139
Bq         2.7286614635    -4.5130427041    -0.6087236838
Bq         2.3699055894    -4.7525835641     0.1811588386

1
2
3
4
5
6
7
8
9
10
11
12
13
14
15
16
17
18
19
20
21
22
23
24
25
26
27
28
29
30
31
32
33
34
35
36
37
38
39
40
41
42
43
44
45
46
47
48
49
50
51
52
53
54
55
56
57
58
59
60
61
62
63
64
65
66
67
68
69
70
71
72
73
74
75
76
77
78
79
80
81
82
83
84
85
86
87
88
89
90
91
92
93
94
95
96
97
98
99
100
101
102
103
104
105
106
107
108
109
110
111
112
113
114
115
116
117
118
119
120
121
122
123
124
125
126
127
128
129
130
131
132
133
134
135
136
137
138
139
140
141
142
143
144
145
146
147
148
149
150
151
152
153
154
155
156
157
158
159
160
161
162
163
164
165
166
167
168
169
170
171
172
173
174
175
176
177
178
179
180
181
182
183
184
185
186
187
188
189
190
191
192
193
194
195
196
197
198
199
200
201
202
203
204
205
206
207
208
209
210
211
212
213
214
215
216
217
218
219
220
221
222
223
224
225
226
227
228
229
230
231
232
233
234
235
236

