%nproc=8
%mem=1000MB
# rb3lyp/6-311+g** NMR geom=connectivity

Title

0 1
C    -4.0500558   -0.5771862    0.8136712
H    -5.0263804   -1.0082727    1.0024760
C    -3.9381552    0.6617804    0.2400876
H    -4.8252424    1.2338890   -0.0111295
C    -2.6768410    1.2433246    0.0057578
C    -1.4974121    0.5051527    0.2848253
C    -1.6508332   -0.7338728    0.9404026
H    -0.7713646   -1.2730967    1.2633753
C    -2.8898548   -1.2624035    1.1994307
H    -2.9683706   -2.2124563    1.7152676
C    -2.5773185    2.5963696   -0.4192930
H    -3.4870728    3.1412239   -0.6474055
C    -1.3741895    3.2147896   -0.4364030
H    -1.2997315    4.2742019   -0.6578144
C    -0.1719488    2.4994090   -0.1734588
C    -0.2043917    1.1018437    0.0192689
C     1.0513491    3.2042560   -0.0676222
H     1.0427344    4.2819499   -0.1896997
C     2.1942091    2.5487446    0.2579577
H     3.1168527    3.0912848    0.4334727
C     2.2216473    1.1336562    0.2934990
C     1.0486931    0.3945528    0.0302412
C     3.4483363    0.4614633    0.5573939
H     4.3095794    1.0606054    0.8334846
C     3.5427346   -0.8855926    0.4749463
H     4.4731467   -1.3939704    0.7038822
C     2.4490052   -1.6474447   -0.0196319
C     1.2150704   -1.0057258   -0.3013573
C     0.2531113   -1.7434440   -1.0216591
H    -0.6541356   -1.2535051   -1.3462847
C     0.4494193   -3.0628597   -1.3413779
H    -0.3083162   -3.5944309   -1.9054060
C     1.6251726   -3.7207967   -0.9552541
H     1.7670048   -4.7687404   -1.1927019
C     2.6109872   -3.0144177   -0.3183050
H     3.5525612   -3.4902813   -0.0646367
Bq        -3.2830244207     0.8702271680     0.3674903114
Bq        -3.2855023897     1.1746061871     0.9978451896
Bq        -3.2826704252     0.8267444510     0.2774396145
Bq        -3.2858563853     1.2180889041     1.0878958865
Bq        -3.2823164296     0.7832617340     0.1873889177
Bq        -3.2840864075     1.0006753191     0.6376424021
Bq        -3.2842694708     1.1342094287     0.6842107179
Bq        -3.2835614796     1.0472439947     0.5041093242
Bq        -3.2846234663     1.1776921457     0.7742614148
Bq        -3.2832074840     1.0037612777     0.4140586273
Bq        -3.2849774619     1.2211748627     0.8643121117
Bq        -3.2828534885     0.9602785607     0.3240079304
Bq        -3.2853314575     1.2646575797     0.9543628086
Bq        -3.2824994929     0.9167958437     0.2339572335
Bq        -3.2856854530     1.3081402968     1.0444135055
Bq        -3.2821454973     0.8733131267     0.1439065366
Bq        -3.2839154752     1.0907267117     0.5941600210
Bq        -3.2840985385     1.2242608214     0.6407283369
Bq        -3.2833905473     1.1372953874     0.4606269431
Bq        -3.2844525341     1.2677435384     0.7307790338
Bq        -3.2830365518     1.0938126704     0.3705762462
Bq        -3.2848065296     1.3112262554     0.8208297307
Bq        -3.2826825562     1.0503299534     0.2805255494
Bq        -3.2851605252     1.3547089724     0.9108804275
Bq        -3.2823285606     1.0068472364     0.1904748525
Bq        -3.2855145208     1.3981916894     1.0009311244
Bq        -3.2819745650     0.9633645194     0.1004241556
Bq        -3.2837445429     1.1807781044     0.5506776400
Bq        -3.2839276062     1.3143122141     0.5972459559
Bq        -3.2832196151     1.2273467801     0.4171445621
Bq        -3.2842816018     1.3577949311     0.6872966527
Bq        -3.2828656195     1.1838640631     0.3270938652
Bq        -3.2846355974     1.4012776481     0.7773473496
Bq        -3.2825116239     1.1403813461     0.2370431683
Bq        -3.2849895929     1.4447603651     0.8673980465
Bq        -3.2821576283     1.0968986291     0.1469924714
Bq        -3.2853435885     1.4882430821     0.9574487434
Bq        -3.2818036328     1.0534159120     0.0569417746
Bq        -3.2835736106     1.2708294971     0.5071952590
Bq        -3.2837566739     1.4043636067     0.5537635748
Bq        -3.2830486828     1.3173981727     0.3736621811
Bq        -3.2841106695     1.4478463237     0.6438142717
Bq        -3.2826946872     1.2739154557     0.2836114842
Bq        -3.2844646651     1.4913290408     0.7338649686
Bq        -3.2823406916     1.2304327387     0.1935607873
Bq        -3.2848186607     1.5348117578     0.8239156655
Bq        -3.2819866961     1.1869500217     0.1035100904
Bq        -3.2851726562     1.5782944748     0.9139663624
Bq        -3.2816327005     1.1434673047     0.0134593935
Bq        -3.2834026784     1.3608808897     0.4637128779
Bq        -3.2835857417     1.4944149994     0.5102811938
Bq        -3.2828777505     1.4074495654     0.3301798000
Bq        -3.2839397372     1.5378977164     0.6003318907
Bq        -3.2825237549     1.3639668484     0.2401291031
Bq        -3.2842937328     1.5813804334     0.6903825876
Bq        -3.2821697594     1.3204841314     0.1500784063
Bq        -3.2846477284     1.6248631504     0.7804332844
Bq        -3.2818157638     1.2770014144     0.0600277094
Bq        -3.2850017240     1.6683458674     0.8704839813
Bq        -3.2814617682     1.2335186974    -0.0300229875
Bq        -3.2832317461     1.4509322824     0.4202304969
Bq        -3.2834148094     1.5844663921     0.4667988128
Bq        -3.2827068182     1.4975009581     0.2866974190
Bq        -3.2837688050     1.6279491091     0.5568495096
Bq        -3.2823528227     1.4540182411     0.1966467221
Bq        -3.2841228005     1.6714318261     0.6469002065
Bq        -3.2819988271     1.4105355241     0.1065960252
Bq        -3.2844767961     1.7149145431     0.7369509034
Bq        -3.2816448315     1.3670528071     0.0165453284
Bq        -3.2848307917     1.7583972601     0.8270016003
Bq        -3.2812908359     1.3235700901    -0.0735053685
Bq        -3.2830608138     1.5409836751     0.3767481159
Bq        -3.2832438771     1.6745177848     0.4233164317
Bq        -3.2825358860     1.5875523507     0.2432150380
Bq        -3.2835978727     1.7180005018     0.5133671286
Bq        -3.2821818904     1.5440696337     0.1531643411
Bq        -3.2839518683     1.7614832188     0.6034178255
Bq        -3.2818278948     1.5005869167     0.0631136442
Bq        -3.2843058638     1.8049659358     0.6934685224
Bq        -3.2814738992     1.4571041997    -0.0269370527
Bq        -3.2846598594     1.8484486528     0.7835192193
Bq        -3.2811199037     1.4136214827    -0.1169877496
Bq        -3.2828898815     1.6310350678     0.3332657348
Bq        -3.2830729448     1.7645691774     0.3798340507
Bq        -3.2823649537     1.6776037434     0.1997326569
Bq        -3.2834269404     1.8080518944     0.4698847476
Bq        -3.2820109581     1.6341210264     0.1096819601
Bq        -3.2837809360     1.8515346114     0.5599354445
Bq        -3.2816569625     1.5906383094     0.0196312632
Bq        -3.2841349316     1.8950173284     0.6499861413
Bq        -3.2813029670     1.5471555924    -0.0704194337
Bq        -3.2844889271     1.9385000454     0.7400368382
Bq        -3.2809489714     1.5036728754    -0.1604701306
Bq        -3.2827189493     1.7210864604     0.2897833538
Bq        -3.2829020126     1.8546205701     0.3363516697
Bq        -3.2821940214     1.7676551361     0.1562502759
Bq        -3.2832560081     1.8981032871     0.4264023665
Bq        -3.2818400258     1.7241724191     0.0661995790
Bq        -3.2836100037     1.9415860041     0.5164530634
Bq        -3.2814860303     1.6806897021    -0.0238511179
Bq        -3.2839639993     1.9850687211     0.6065037603
Bq        -3.2811320347     1.6372069851    -0.1139018147
Bq        -3.2843179949     2.0285514381     0.6965544572
Bq        -3.2807780391     1.5937242681    -0.2039525116
Bq        -3.2825480170     1.8111378531     0.2463009728
Bq        -3.2827310803     1.9446719628     0.2928692886
Bq        -3.2820230891     1.8577065288     0.1127678949
Bq        -3.2830850759     1.9881546798     0.3829199855
Bq        -3.2816690936     1.8142238118     0.0227171980
Bq        -3.2834390714     2.0316373968     0.4729706824
Bq        -3.2813150980     1.7707410947    -0.0673334989
Bq        -3.2837930670     2.0751201138     0.5630213793
Bq        -3.2809611024     1.7272583777    -0.1573841958
Bq        -3.2841470626     2.1186028308     0.6530720762
Bq        -3.2806071068     1.6837756607    -0.2474348927
Bq        -3.2823770847     1.9011892458     0.2028185918
Bq        -3.2825601480     2.0347233554     0.2493869076
Bq        -3.2818521569     1.9477579214     0.0692855138
Bq        -3.2829141436     2.0782060724     0.3394376045
Bq        -3.2814981613     1.9042752044    -0.0207651830
Bq        -3.2832681392     2.1216887894     0.4294883014
Bq        -3.2811441657     1.8607924874    -0.1108158799
Bq        -3.2836221347     2.1651715065     0.5195389982
Bq        -3.2807901701     1.8173097704    -0.2008665768
Bq        -3.2839761303     2.2086542235     0.6095896951
Bq        -3.2804361746     1.7738270534    -0.2909172737
Bq        -3.2822061524     1.9912406384     0.1593362107
Bq        -3.2823892157     2.1247747481     0.2059045266
Bq        -3.2816812246     2.0378093141     0.0258031328
Bq        -3.2827432113     2.1682574651     0.2959552235
Bq        -3.2813272290     1.9943265971    -0.0642475641
Bq        -3.2830972069     2.2117401821     0.3860059203
Bq        -3.2809732334     1.9508438801    -0.1542982610
Bq        -3.2834512025     2.2552228991     0.4760566172
Bq        -3.2806192379     1.9073611631    -0.2443489578
Bq        -3.2838051980     2.2987056161     0.5661073141
Bq        -3.2802652423     1.8638784461    -0.3343996547
Bq        -3.2820352202     2.0812920311     0.1158538297
Bq        -3.2822182835     2.2148261408     0.1624221455
Bq        -3.2815102923     2.1278607068    -0.0176792482
Bq        -3.2825722790     2.2583088578     0.2524728424
Bq        -3.2811562967     2.0843779898    -0.1077299451
Bq        -3.2829262746     2.3017915748     0.3425235393
Bq        -3.2808023012     2.0408952728    -0.1977806420
Bq        -3.2832802702     2.3452742918     0.4325742362
Bq        -3.2804483056     1.9974125558    -0.2878313389
Bq        -3.2836342658     2.3887570088     0.5226249331
Bq        -3.2800943100     1.9539298388    -0.3778820358
Bq        -3.2818642879     2.1713434238     0.0723714487
Bq        -3.2820473512     2.3048775334     0.1189397645
Bq        -3.2813393600     2.2179120994    -0.0611616293
Bq        -3.2824013468     2.3483602505     0.2089904614
Bq        -3.2809853645     2.1744293824    -0.1512123261
Bq        -3.2827553423     2.3918429675     0.2990411583
Bq        -3.2806313689     2.1309466654    -0.2412630230
Bq        -3.2831093379     2.4353256845     0.3890918552
Bq        -3.2802773733     2.0874639484    -0.3313137199
Bq        -3.2834633335     2.4788084015     0.4791425520
Bq        -3.2799233777     2.0439812314    -0.4213644168
Bq        -3.2816933556     2.2613948164     0.0288890676
Bq        -3.2818764189     2.3949289261     0.0754573835
Bq        -3.2811684278     2.3079634921    -0.1046440103
Bq        -3.2822304145     2.4384116431     0.1655080804
Bq        -3.2808144322     2.2644807751    -0.1946947072
Bq        -3.2825844101     2.4818943601     0.2555587772
Bq        -3.2804604366     2.2209980581    -0.2847454041
Bq        -3.2829384056     2.5253770771     0.3456094741
Bq        -3.2801064410     2.1775153411    -0.3747961009
Bq        -3.2832924012     2.5688597941     0.4356601710
Bq        -3.2797524455     2.1340326241    -0.4648467978
Bq        -3.2815224233     2.3514462091    -0.0145933134
Bq        -3.2817054866     2.4849803188     0.0319750024
Bq        -3.2809974955     2.3980148848    -0.1481263913
Bq        -3.2820594822     2.5284630358     0.1220256993
Bq        -3.2806434999     2.3545321678    -0.2381770882
Bq        -3.2824134778     2.5719457528     0.2120763962
Bq        -3.2802895043     2.3110494508    -0.3282277851
Bq        -3.2827674734     2.6154284698     0.3021270931
Bq        -3.2799355088     2.2675667338    -0.4182784820
Bq        -3.2831214689     2.6589111868     0.3921777900
Bq        -3.2795815132     2.2240840168    -0.5083291789
Bq        -3.2813514911     2.4414976018    -0.0580756944
Bq        -3.1902528730    -2.0175893147     2.2064871580
Bq        -3.1895448819    -2.1045547487     2.0263857642
Bq        -3.1906068686    -1.9741065977     2.2965378549
Bq        -3.1891908863    -2.1480374658     1.9363350674
Bq        -3.1909608642    -1.9306238807     2.3865885518
Bq        -3.1888368907    -2.1915201828     1.8462843705
Bq        -3.1913148597    -1.8871411637     2.4766392487
Bq        -3.1884828951    -2.2350028998     1.7562336736
Bq        -3.1916688553    -1.8436584467     2.5666899455
Bq        -3.1881288996    -2.2784856168     1.6661829767
Bq        -3.1898988774    -2.0610720317     2.1164364611
Bq        -3.1900819407    -1.9275379221     2.1630047770
Bq        -3.1893739496    -2.0145033561     1.9829033832
Bq        -3.1904359363    -1.8840552051     2.2530554739
Bq        -3.1890199540    -2.0579860731     1.8928526863
Bq        -3.1907899319    -1.8405724881     2.3431061707
Bq        -3.1886659584    -2.1014687901     1.8028019894
Bq        -3.1911439275    -1.7970897711     2.4331568676

1
2
3
4
5
6
7
8
9
10
11
12
13
14
15
16
17
18
19
20
21
22
23
24
25
26
27
28
29
30
31
32
33
34
35
36
37
38
39
40
41
42
43
44
45
46
47
48
49
50
51
52
53
54
55
56
57
58
59
60
61
62
63
64
65
66
67
68
69
70
71
72
73
74
75
76
77
78
79
80
81
82
83
84
85
86
87
88
89
90
91
92
93
94
95
96
97
98
99
100
101
102
103
104
105
106
107
108
109
110
111
112
113
114
115
116
117
118
119
120
121
122
123
124
125
126
127
128
129
130
131
132
133
134
135
136
137
138
139
140
141
142
143
144
145
146
147
148
149
150
151
152
153
154
155
156
157
158
159
160
161
162
163
164
165
166
167
168
169
170
171
172
173
174
175
176
177
178
179
180
181
182
183
184
185
186
187
188
189
190
191
192
193
194
195
196
197
198
199
200
201
202
203
204
205
206
207
208
209
210
211
212
213
214
215
216
217
218
219
220
221
222
223
224
225
226
227
228
229
230
231
232
233
234
235
236

