%nproc=8
%mem=1000MB
# rb3lyp/6-311+g** NMR geom=connectivity

Title

0 1
C    -4.0500558   -0.5771862    0.8136712
H    -5.0263804   -1.0082727    1.0024760
C    -3.9381552    0.6617804    0.2400876
H    -4.8252424    1.2338890   -0.0111295
C    -2.6768410    1.2433246    0.0057578
C    -1.4974121    0.5051527    0.2848253
C    -1.6508332   -0.7338728    0.9404026
H    -0.7713646   -1.2730967    1.2633753
C    -2.8898548   -1.2624035    1.1994307
H    -2.9683706   -2.2124563    1.7152676
C    -2.5773185    2.5963696   -0.4192930
H    -3.4870728    3.1412239   -0.6474055
C    -1.3741895    3.2147896   -0.4364030
H    -1.2997315    4.2742019   -0.6578144
C    -0.1719488    2.4994090   -0.1734588
C    -0.2043917    1.1018437    0.0192689
C     1.0513491    3.2042560   -0.0676222
H     1.0427344    4.2819499   -0.1896997
C     2.1942091    2.5487446    0.2579577
H     3.1168527    3.0912848    0.4334727
C     2.2216473    1.1336562    0.2934990
C     1.0486931    0.3945528    0.0302412
C     3.4483363    0.4614633    0.5573939
H     4.3095794    1.0606054    0.8334846
C     3.5427346   -0.8855926    0.4749463
H     4.4731467   -1.3939704    0.7038822
C     2.4490052   -1.6474447   -0.0196319
C     1.2150704   -1.0057258   -0.3013573
C     0.2531113   -1.7434440   -1.0216591
H    -0.6541356   -1.2535051   -1.3462847
C     0.4494193   -3.0628597   -1.3413779
H    -0.3083162   -3.5944309   -1.9054060
C     1.6251726   -3.7207967   -0.9552541
H     1.7670048   -4.7687404   -1.1927019
C     2.6109872   -3.0144177   -0.3183050
H     3.5525612   -3.4902813   -0.0646367
Bq        -1.3687237784     1.4191403402    -0.1695910136
Bq        -1.4990073558     1.4633617060     0.7198305176
Bq        -1.3542478254     1.4142268552    -0.2684156282
Bq        -1.4266275906     1.4387942806     0.2257074447
Bq        -1.4403914097     1.5435869810     0.3196704545
Bq        -1.4114395036     1.5337600109     0.1220212254
Bq        -1.4548673627     1.5485004661     0.4184950691
Bq        -1.3969635505     1.5288465258     0.0231966108
Bq        -1.4693433158     1.5534139512     0.5173196837
Bq        -1.3824875975     1.5239330407    -0.0756280038
Bq        -1.4838192688     1.5583274363     0.6161442983
Bq        -1.3680116445     1.5190195556    -0.1744526184
Bq        -1.4982952219     1.5632409214     0.7149689129
Bq        -1.3535356914     1.5141060705    -0.2732772330
Bq        -1.4259154566     1.5386734959     0.2208458400
Bq        -1.4396792757     1.6434661964     0.3148088498
Bq        -1.4107273696     1.6336392262     0.1171596206
Bq        -1.4541552288     1.6483796815     0.4136334644
Bq        -1.3962514166     1.6287257412     0.0183350060
Bq        -1.4686311818     1.6532931666     0.5124580789
Bq        -1.3817754636     1.6238122561    -0.0804896086
Bq        -1.4831071349     1.6582066517     0.6112826935
Bq        -1.3672995105     1.6188987710    -0.1793142232
Bq        -1.4975830879     1.6631201367     0.7101073081
Bq        -1.3528235575     1.6139852859    -0.2781388377
Bq        -1.4252033227     1.6385527113     0.2159842352
Bq        -1.4389671418     1.7433454118     0.3099472450
Bq        -1.4100152357     1.7335184416     0.1122980158
Bq        -1.4534430948     1.7482588969     0.4087718596
Bq        -1.3955392827     1.7286049565     0.0134734013
Bq        -1.4679190479     1.7531723819     0.5075964742
Bq        -1.3810633296     1.7236914715    -0.0853512133
Bq        -1.4823950009     1.7580858670     0.6064210888
Bq        -1.3665873766     1.7187779864    -0.1841758279
Bq        -1.4968709540     1.7629993521     0.7052457033
Bq        -1.3521114235     1.7138645013    -0.2830004425
Bq        -1.4244911887     1.7384319267     0.2111226304
Bq        -1.4382550078     1.8432246272     0.3050856402
Bq        -1.4093031018     1.8333976570     0.1074364111
Bq        -1.4527309609     1.8481381122     0.4039102548
Bq        -1.3948271487     1.8284841719     0.0086117965
Bq        -1.4672069139     1.8530515973     0.5027348694
Bq        -1.3803511957     1.8235706868    -0.0902128181
Bq        -1.4816828670     1.8579650824     0.6015594840
Bq        -1.3658752426     1.8186572017    -0.1890374327
Bq        -1.4961588200     1.8628785675     0.7003840986
Bq        -1.3513992896     1.8137437167    -0.2878620473
Bq        -1.4237790548     1.8383111421     0.2062610257
Bq        -1.4375428739     1.9431038425     0.3002240355
Bq        -1.4085909678     1.9332768724     0.1025748063
Bq        -1.4520188270     1.9480173276     0.3990486501
Bq        -1.3941150148     1.9283633873     0.0037501917
Bq        -1.4664947800     1.9529308127     0.4978732646
Bq        -1.3796390617     1.9234499022    -0.0950744229
Bq        -1.4809707330     1.9578442978     0.5966978792
Bq        -1.3651631087     1.9185364171    -0.1938990375
Bq        -1.4954466861     1.9627577829     0.6955224938
Bq        -1.3506871556     1.9136229320    -0.2927236520
Bq        -1.4230669209     1.9381903575     0.2013994209
Bq        -1.4368307400     2.0429830579     0.2953624307
Bq        -1.4078788339     2.0331560878     0.0977132015
Bq        -1.4513066930     2.0478965430     0.3941870453
Bq        -1.3934028808     2.0282426027    -0.0011114130
Bq        -1.4657826461     2.0528100281     0.4930116599
Bq        -1.3789269278     2.0233291176    -0.0999360276
Bq        -1.4802585991     2.0577235132     0.5918362745
Bq        -1.3644509747     2.0184156325    -0.1987606422
Bq        -1.4947345521     2.0626369982     0.6906608890
Bq        -1.3499750217     2.0135021474    -0.2975852568
Bq        -1.4223547869     2.0380695728     0.1965378161
Bq        -1.4361186060     2.1428622733     0.2905008259
Bq        -1.4071666999     2.1330353031     0.0928515968
Bq        -1.4505945591     2.1477757584     0.3893254405
Bq        -1.3926907469     2.1281218180    -0.0059730178
Bq        -1.4650705121     2.1526892435     0.4881500551
Bq        -1.3782147938     2.1232083330    -0.1047976324
Bq        -1.4795464652     2.1576027285     0.5869746697
Bq        -1.3637388408     2.1182948479    -0.2036222470
Bq        -1.4940224182     2.1625162136     0.6857992843
Bq        -1.3492628878     2.1133813628    -0.3024468616
Bq        -1.4216426530     2.1379487882     0.1916762114
Bq        -1.4354064721     2.2427414887     0.2856392212
Bq        -1.4064545660     2.2329145185     0.0879899920
Bq        -1.4498824251     2.2476549738     0.3844638358
Bq        -1.3919786130     2.2280010334    -0.0108346226
Bq        -1.4643583782     2.2525684588     0.4832884503
Bq        -1.3775026599     2.2230875483    -0.1096592372
Bq        -1.4788343312     2.2574819439     0.5821130649
Bq        -1.3630267069     2.2181740633    -0.2084838517
Bq        -1.4933102843     2.2623954290     0.6809376795
Bq        -1.3485507538     2.2132605782    -0.3073084663
Bq        -1.4209305190     2.2378280036     0.1868146066
Bq        -1.4346943381     2.3426207040     0.2807776164
Bq        -1.4057424321     2.3327937339     0.0831283872
Bq        -1.4491702912     2.3475341891     0.3796022310
Bq        -1.3912664790     2.3278802488    -0.0156962273
Bq        -1.4636462442     2.3524476742     0.4784268456
Bq        -1.3767905260     2.3229667637    -0.1145208419
Bq        -1.4781221973     2.3573611593     0.5772514602
Bq        -1.3623145729     2.3180532786    -0.2133454565
Bq        -1.4925981503     2.3622746444     0.6760760747
Bq        -1.3478386199     2.3131397936    -0.3121700711
Bq        -1.4202183851     2.3377072190     0.1819530018
Bq        -1.4339822042     2.4424999194     0.2759160116
Bq        -1.4050302981     2.4326729493     0.0782667825
Bq        -1.4484581572     2.4474134045     0.3747406262
Bq        -1.3905543451     2.4277594642    -0.0205578321
Bq        -1.4629341103     2.4523268896     0.4735652408
Bq        -1.3760783920     2.4228459791    -0.1193824467
Bq        -1.4774100633     2.4572403747     0.5723898554
Bq        -1.3616024390     2.4179324940    -0.2182070613
Bq        -1.4918860164     2.4621538598     0.6712144700
Bq        -1.3471264859     2.4130190089    -0.3170316759
Bq        -1.4195062512     2.4375864343     0.1770913971
Bq        -1.4332700703     2.5423791348     0.2710544069
Bq        -1.4043181642     2.5325521646     0.0734051777
Bq        -1.4477460233     2.5472926199     0.3698790215
Bq        -1.3898422111     2.5276386796    -0.0254194369
Bq        -1.4622219763     2.5522061050     0.4687036360
Bq        -1.3753662581     2.5227251945    -0.1242440515
Bq        -1.4766979294     2.5571195900     0.5675282506
Bq        -1.3608903050     2.5178117094    -0.2230686660
Bq        -1.4911738824     2.5620330751     0.6663528652
Bq        -1.3464143520     2.5128982243    -0.3218932806
Bq        -1.4187941172     2.5374656497     0.1722297923
Bq        -1.4325579363     2.6422583502     0.2661928021
Bq        -1.4036060302     2.6324313800     0.0685435729
Bq        -1.4470338894     2.6471718353     0.3650174167
Bq        -1.3891300772     2.6275178949    -0.0302810416
Bq        -1.4615098424     2.6520853203     0.4638420313
Bq        -1.3746541241     2.6226044098    -0.1291056562
Bq        -1.4759857954     2.6569988054     0.5626666459
Bq        -1.3601781711     2.6176909248    -0.2279302708
Bq        -1.4904617485     2.6619122905     0.6614912604
Bq        -1.3457022181     2.6127774397    -0.3267548854
Bq        -1.4180819833     2.6373448651     0.1673681875
Bq        -1.4318458024     2.7421375656     0.2613311973
Bq        -1.4028938963     2.7323105954     0.0636819682
Bq        -1.4463217554     2.7470510506     0.3601558119
Bq        -1.3884179432     2.7273971103    -0.0351426464
Bq        -1.4607977085     2.7519645357     0.4589804265
Bq        -1.3739419902     2.7224836252    -0.1339672610
Bq        -1.4752736615     2.7568780208     0.5578050411
Bq        -1.3594660372     2.7175701401    -0.2327918756
Bq        -1.4897496146     2.7617915059     0.6566296557
Bq        -1.3449900841     2.7126566551    -0.3316164902
Bq        -1.4173698493     2.7372240805     0.1625065828
Bq        -1.4311336684     2.8420167809     0.2564695926
Bq        -1.4021817623     2.8321898108     0.0588203634
Bq        -1.4456096215     2.8469302660     0.3552942072
Bq        -1.3877058093     2.8272763257    -0.0400042512
Bq        -1.4600855745     2.8518437511     0.4541188217
Bq        -1.3732298563     2.8223628406    -0.1388288658
Bq        -1.4745615276     2.8567572362     0.5529434363
Bq        -1.3587539032     2.8174493555    -0.2376534803
Bq        -1.4890374806     2.8616707213     0.6517680509
Bq        -1.3442779502     2.8125358704    -0.3364780949
Bq        -1.4166577154     2.8371032959     0.1576449780
Bq        -1.4304215345     2.9418959963     0.2516079878
Bq        -1.4014696284     2.9320690261     0.0539587586
Bq        -1.4448974875     2.9468094814     0.3504326024
Bq        -1.3869936754     2.9271555411    -0.0448658559
Bq        -1.4593734406     2.9517229665     0.4492572170
Bq        -1.3725177223     2.9222420560    -0.1436904705
Bq        -1.4738493936     2.9566364516     0.5480818316
Bq        -1.3580417693     2.9173285709    -0.2425150851
Bq        -1.4883253467     2.9615499366     0.6469064461
Bq        -1.3435658162     2.9124150858    -0.3413396997
Bq        -1.4159455814     2.9369825112     0.1527833732
Bq        -1.4297094005     3.0417752117     0.2467463830
Bq        -1.4007574945     3.0319482415     0.0490971539
Bq        -1.4441853536     3.0466886968     0.3455709976
Bq        -1.3862815414     3.0270347564    -0.0497274607
Bq        -1.4586613066     3.0516021819     0.4443956122
Bq        -1.3718055884     3.0221212714    -0.1485520753
Bq        -1.4731372597     3.0565156669     0.5432202268
Bq        -1.3573296353     3.0172077863    -0.2473766899
Bq        -1.4876132127     3.0614291520     0.6420448414
Bq        -1.3428536823     3.0122943012    -0.3462013045
Bq        -1.4152334475     3.0368617266     0.1479217685
Bq        -1.4289972666     3.1416544271     0.2418847783
Bq        -1.4000453605     3.1318274569     0.0442355491
Bq        -1.4434732197     3.1465679121     0.3407093929
Bq        -1.3855694075     3.1269139718    -0.0545890655
Bq        -1.4579491727     3.1514813972     0.4395340074
Bq        -1.3710934544     3.1220004867    -0.1534136801
Bq        -1.4724251257     3.1563948823     0.5383586220
Bq        -1.3566175014     3.1170870017    -0.2522382946
Bq        -1.4869010788     3.1613083674     0.6371832366
Bq        -1.3421415483     3.1121735166    -0.3510629092
Bq        -1.4145213136     3.1367409420     0.1430601637
Bq        -1.4282851327     3.2415336424     0.2370231735
Bq        -1.3993332266     3.2317066723     0.0393739443
Bq        -1.4427610857     3.2464471275     0.3358477881
Bq        -1.3848572735     3.2267931872    -0.0594506702
Bq        -1.4572370388     3.2513606126     0.4346724027
Bq        -1.3703813205     3.2218797021    -0.1582752848
Bq        -1.4717129918     3.2562740977     0.5334970173
Bq        -1.3559053674     3.2169662170    -0.2570998994
Bq        -1.4861889448     3.2611875828     0.6323216318

1
2
3
4
5
6
7
8
9
10
11
12
13
14
15
16
17
18
19
20
21
22
23
24
25
26
27
28
29
30
31
32
33
34
35
36
37
38
39
40
41
42
43
44
45
46
47
48
49
50
51
52
53
54
55
56
57
58
59
60
61
62
63
64
65
66
67
68
69
70
71
72
73
74
75
76
77
78
79
80
81
82
83
84
85
86
87
88
89
90
91
92
93
94
95
96
97
98
99
100
101
102
103
104
105
106
107
108
109
110
111
112
113
114
115
116
117
118
119
120
121
122
123
124
125
126
127
128
129
130
131
132
133
134
135
136
137
138
139
140
141
142
143
144
145
146
147
148
149
150
151
152
153
154
155
156
157
158
159
160
161
162
163
164
165
166
167
168
169
170
171
172
173
174
175
176
177
178
179
180
181
182
183
184
185
186
187
188
189
190
191
192
193
194
195
196
197
198
199
200
201
202
203
204
205
206
207
208
209
210
211
212
213
214
215
216
217
218
219
220
221
222
223
224
225
226
227
228
229
230
231
232
233
234
235
236

