%nproc=8
%mem=1000MB
# rb3lyp/6-311+g** NMR geom=connectivity

Title

0 1
C    -4.0500558   -0.5771862    0.8136712
H    -5.0263804   -1.0082727    1.0024760
C    -3.9381552    0.6617804    0.2400876
H    -4.8252424    1.2338890   -0.0111295
C    -2.6768410    1.2433246    0.0057578
C    -1.4974121    0.5051527    0.2848253
C    -1.6508332   -0.7338728    0.9404026
H    -0.7713646   -1.2730967    1.2633753
C    -2.8898548   -1.2624035    1.1994307
H    -2.9683706   -2.2124563    1.7152676
C    -2.5773185    2.5963696   -0.4192930
H    -3.4870728    3.1412239   -0.6474055
C    -1.3741895    3.2147896   -0.4364030
H    -1.2997315    4.2742019   -0.6578144
C    -0.1719488    2.4994090   -0.1734588
C    -0.2043917    1.1018437    0.0192689
C     1.0513491    3.2042560   -0.0676222
H     1.0427344    4.2819499   -0.1896997
C     2.1942091    2.5487446    0.2579577
H     3.1168527    3.0912848    0.4334727
C     2.2216473    1.1336562    0.2934990
C     1.0486931    0.3945528    0.0302412
C     3.4483363    0.4614633    0.5573939
H     4.3095794    1.0606054    0.8334846
C     3.5427346   -0.8855926    0.4749463
H     4.4731467   -1.3939704    0.7038822
C     2.4490052   -1.6474447   -0.0196319
C     1.2150704   -1.0057258   -0.3013573
C     0.2531113   -1.7434440   -1.0216591
H    -0.6541356   -1.2535051   -1.3462847
C     0.4494193   -3.0628597   -1.3413779
H    -0.3083162   -3.5944309   -1.9054060
C     1.6251726   -3.7207967   -0.9552541
H     1.7670048   -4.7687404   -1.1927019
C     2.6109872   -3.0144177   -0.3183050
H     3.5525612   -3.4902813   -0.0646367
Bq         1.9567557864    -0.8520779642    -0.0136991645
Bq         1.8283614647    -0.9232162594     0.4642697060
Bq         1.7989915499    -0.8384612243     0.5736040196
Bq         1.8503492785    -0.8100059063     0.3824164714
Bq         1.7733126856    -0.8526888834     0.6691977937
Bq         1.8760281429    -0.7957782473     0.2868226973
Bq         1.7476338212    -0.8669165424     0.7647915678
Bq         1.9017070072    -0.7815505882     0.1912289232
Bq         1.7219549569    -0.8811442014     0.8603853419
Bq         1.9273858715    -0.7673229292     0.0956351491
Bq         1.6962760926    -0.8953718605     0.9559791160
Bq         1.9530647358    -0.7530952702     0.0000413750
Bq         1.8246704142    -0.8242335653     0.4780102455
Bq         1.7953004994    -0.7394785303     0.5873445592
Bq         1.8466582280    -0.7110232123     0.3961570110
Bq         1.7696216350    -0.7537061893     0.6829383333
Bq         1.8723370923    -0.6967955532     0.3005632369
Bq         1.7439427707    -0.7679338484     0.7785321074
Bq         1.8980159566    -0.6825678942     0.2049694628
Bq         1.7182639064    -0.7821615074     0.8741258815
Bq         1.9236948210    -0.6683402352     0.1093756887
Bq         1.6925850421    -0.7963891664     0.9697196556
Bq         1.9493736853    -0.6541125761     0.0137819146
Bq         1.8209793637    -0.7252508713     0.4917507851
Bq         1.7916094488    -0.6404958363     0.6010850987
Bq         1.8429671775    -0.6120405182     0.4098975505
Bq         1.7659305845    -0.6547234953     0.6966788728
Bq         1.8686460418    -0.5978128592     0.3143037765
Bq         1.7402517202    -0.6689511543     0.7922726469
Bq         1.8943249061    -0.5835852002     0.2187100024
Bq         1.7145728559    -0.6831788134     0.8878664210
Bq         1.9200037704    -0.5693575411     0.1231162283
Bq         1.6888939915    -0.6974064724     0.9834601951
Bq         1.9456826348    -0.5551298821     0.0275224542
Bq         1.8172883131    -0.6262681772     0.5054913246
Bq         1.7879183983    -0.5415131422     0.6148256383
Bq         1.8392761269    -0.5130578242     0.4236380901
Bq         1.7622395340    -0.5557408013     0.7104194124
Bq         1.8649549913    -0.4988301652     0.3280443160
Bq         1.7365606696    -0.5699684603     0.8060131865
Bq         1.8906338556    -0.4846025061     0.2324505419
Bq         1.7108818053    -0.5841961193     0.9016069606
Bq         1.9163127199    -0.4703748471     0.1368567678
Bq         1.6852029410    -0.5984237784     0.9972007347
Bq         1.9419915842    -0.4561471881     0.0412629937
Bq         1.8135972626    -0.5272854832     0.5192318642
Bq         1.7842273477    -0.4425304482     0.6285661779
Bq         1.8355850764    -0.4140751301     0.4373786297
Bq         1.7585484834    -0.4567581072     0.7241599519
Bq         1.8612639407    -0.3998474711     0.3417848556
Bq         1.7328696191    -0.4709857663     0.8197537260
Bq         1.8869428050    -0.3856198121     0.2461910815
Bq         1.7071907548    -0.4852134253     0.9153475001
Bq         1.9126216694    -0.3713921531     0.1505973074
Bq         1.6815118905    -0.4994410843     1.0109412742
Bq         1.9383005337    -0.3571644940     0.0550035333
Bq         1.8099062121    -0.4283027892     0.5329724038
Bq         1.7805362972    -0.3435477542     0.6423067174
Bq         1.8318940259    -0.3150924361     0.4511191692
Bq         1.7548574329    -0.3577754132     0.7379004915
Bq         1.8575728902    -0.3008647771     0.3555253951
Bq         1.7291785686    -0.3720030722     0.8334942656
Bq         1.8832517545    -0.2866371181     0.2599316210
Bq         1.7034997042    -0.3862307313     0.9290880397
Bq         1.9089306188    -0.2724094590     0.1643378469
Bq         1.6778208399    -0.4004583903     1.0246818138
Bq         1.9346094831    -0.2581818000     0.0687440728
Bq         1.8062151615    -0.3293200951     0.5467129433
Bq         1.7768452467    -0.2445650601     0.6560472570
Bq         1.8282029753    -0.2161097421     0.4648597088
Bq         1.7511663824    -0.2587927192     0.7516410311
Bq         1.8538818396    -0.2018820830     0.3692659347
Bq         1.7254875180    -0.2730203782     0.8472348052
Bq         1.8795607040    -0.1876544240     0.2736721606
Bq         1.6998086537    -0.2872480372     0.9428285793
Bq         1.9052395683    -0.1734267650     0.1780783865
Bq         1.6741297894    -0.3014756962     1.0384223534
Bq         1.9309184326    -0.1591991060     0.0824846124
Bq         1.8025241110    -0.2303374011     0.5604534829
Bq         1.7731541961    -0.1455823661     0.6697877965
Bq         1.8245119248    -0.1171270480     0.4786002483
Bq         1.7474753318    -0.1598100251     0.7653815706
Bq         1.8501907891    -0.1028993890     0.3830064742
Bq         1.7217964675    -0.1740376842     0.8609753447
Bq         1.8758696534    -0.0886717300     0.2874127002
Bq         1.6961176032    -0.1882653432     0.9565691188
Bq         1.9015485178    -0.0744440710     0.1918189261
Bq         1.6704387389    -0.2024930022     1.0521628929
Bq         1.9272273821    -0.0602164119     0.0962251520
Bq         1.7988330605    -0.1313547071     0.5741940224
Bq         1.7694631456    -0.0465996721     0.6835283361
Bq         1.8208208743    -0.0181443540     0.4923407879
Bq         1.7437842813    -0.0608273311     0.7791221102
Bq         1.8464997386    -0.0039166950     0.3967470138
Bq         1.7181054170    -0.0750549901     0.8747158843
Bq         1.8721786029     0.0103109641     0.3011532397
Bq         1.6924265526    -0.0892826491     0.9703096584
Bq         1.8978574672     0.0245386231     0.2055594656
Bq         1.6667476883    -0.1035103082     1.0659034325
Bq         1.9235363315     0.0387662821     0.1099656915
Bq         1.7951420099    -0.0323720130     0.5879345620
Bq         1.7657720951     0.0523830220     0.6972688756
Bq         1.8171298237     0.0808383400     0.5060813275
Bq         1.7400932307     0.0381553629     0.7928626497
Bq         1.8428086880     0.0950659991     0.4104875534
Bq         1.7144143664     0.0239277039     0.8884564238
Bq         1.8684875524     0.1092936581     0.3148937793
Bq         1.6887355021     0.0097000449     0.9840501979
Bq         1.8941664167     0.1235213171     0.2193000052
Bq         1.6630566378    -0.0045276141     1.0796439720
Bq         1.9198452810     0.1377489761     0.1237062311
Bq         1.7914509594     0.0666106810     0.6016751016
Bq         1.7620810445     0.1513657160     0.7110094152
Bq         1.8134387732     0.1798210341     0.5198218670
Bq         1.7364021802     0.1371380570     0.8066031893
Bq         1.8391176375     0.1940486931     0.4242280929
Bq         1.7107233159     0.1229103980     0.9021969634
Bq         1.8647965018     0.2082763521     0.3286343188
Bq         1.6850444516     0.1086827389     0.9977907375
Bq         1.8904753661     0.2225040112     0.2330405447
Bq         1.6593655872     0.0944550799     1.0933845116
Bq         1.9161542305     0.2367316702     0.1374467706
Bq         1.7877599089     0.1655933750     0.6154156411
Bq         1.7583899940     0.2503484100     0.7247499548
Bq         1.8097477226     0.2788037281     0.5335624066
Bq         1.7327111297     0.2361207510     0.8203437289
Bq         1.8354265870     0.2930313871     0.4379686325
Bq         1.7070322654     0.2218930920     0.9159375030
Bq         1.8611054513     0.3072590462     0.3423748584
Bq         1.6813534010     0.2076654330     1.0115312771
Bq         1.8867843156     0.3214867052     0.2467810843
Bq         1.6556745367     0.1934377739     1.1071250511
Bq         1.9124631799     0.3357143642     0.1511873102
Bq         1.7840688583     0.2645760691     0.6291561807
Bq         1.7546989435     0.3493311041     0.7384904943
Bq         1.8060566721     0.3777864221     0.5473029461
Bq         1.7290200791     0.3351034451     0.8340842684
Bq         1.8317355364     0.3920140812     0.4517091720
Bq         1.7033412148     0.3208757860     0.9296780425
Bq         1.8574144008     0.4062417402     0.3561153979
Bq         1.6776623505     0.3066481270     1.0252718166
Bq         1.8830932651     0.4204693992     0.2605216239
Bq         1.6519834862     0.2924204680     1.1208655907
Bq         1.9087721294     0.4346970583     0.1649278498
Bq         1.7803778078     0.3635587631     0.6428967202
Bq         1.7510078929     0.4483137981     0.7522310339
Bq         1.8023656216     0.4767691162     0.5610434857
Bq         1.7253290286     0.4340861391     0.8478248080
Bq         1.8280444859     0.4909967752     0.4654497116
Bq         1.6996501643     0.4198584801     0.9434185821
Bq         1.8537233502     0.5052244342     0.3698559375
Bq         1.6739713000     0.4056308210     1.0390123562
Bq         1.8794022145     0.5194520933     0.2742621634
Bq         1.6482924356     0.3914031620     1.1346061303
Bq         1.9050810789     0.5336797523     0.1786683893
Bq         1.7766867573     0.4625414571     0.6566372598
Bq         1.7473168424     0.5472964922     0.7659715734
Bq         1.7986745710     0.5757518102     0.5747840253
Bq         1.7216379781     0.5330688331     0.8615653475
Bq         1.8243534354     0.5899794692     0.4791902512
Bq         1.6959591137     0.5188411741     0.9571591216
Bq         1.8500322997     0.6042071283     0.3835964771
Bq         1.6702802494     0.5046135151     1.0527528957
Bq         1.8757111640     0.6184347873     0.2880027030
Bq         1.6446013851     0.4903858560     1.1483466698
Bq         1.9013900283     0.6326624463     0.1924089289
Bq         1.7729957067     0.5615241512     0.6703777993
Bq         1.7436257919     0.6462791862     0.7797121130
Bq         1.7949835205     0.6747345042     0.5885245648
Bq         1.7179469275     0.6320515272     0.8753058871
Bq         1.8206623848     0.6889621633     0.4929307907
Bq         1.6922680632     0.6178238681     0.9708996612
Bq         1.8463412491     0.7031898223     0.3973370166
Bq         1.6665891989     0.6035962091     1.0664934353
Bq         1.8720201135     0.7174174813     0.3017432425
Bq         1.6409103346     0.5893685501     1.1620872094
Bq         1.8976989778     0.7316451404     0.2061494684
Bq         1.7693046562     0.6605068452     0.6841183389
Bq         1.7399347413     0.7452618802     0.7934526526
Bq         1.7912924700     0.7737171983     0.6022651044
Bq         1.7142558770     0.7310342212     0.8890464267
Bq         1.8169713343     0.7879448573     0.5066713303
Bq         1.6885770127     0.7168065622     0.9846402007
Bq         1.8426501986     0.8021725163     0.4110775562
Bq         1.6628981484     0.7025789031     1.0802339748
Bq         1.8683290629     0.8164001754     0.3154837821
Bq         1.6372192840     0.6883512441     1.1758277489
Bq         1.8940079273     0.8306278344     0.2198900080
Bq         1.7656136056     0.7594895393     0.6978588785
Bq         1.7362436908     0.8442445743     0.8071931921
Bq         1.7876014194     0.8726998923     0.6160056439
Bq         1.7105648265     0.8300169152     0.9027869662
Bq         1.8132802838     0.8869275513     0.5204118698
Bq         1.6848859621     0.8157892562     0.9983807403
Bq         1.8389591481     0.9011552104     0.4248180957
Bq         1.6592070978     0.8015615972     1.0939745144
Bq         1.8646380124     0.9153828694     0.3292243216
Bq         1.6335282335     0.7873339381     1.1895682885
Bq         1.8903168767     0.9296105284     0.2336305476
Bq         1.7619225551     0.8584722333     0.7115994180

1
2
3
4
5
6
7
8
9
10
11
12
13
14
15
16
17
18
19
20
21
22
23
24
25
26
27
28
29
30
31
32
33
34
35
36
37
38
39
40
41
42
43
44
45
46
47
48
49
50
51
52
53
54
55
56
57
58
59
60
61
62
63
64
65
66
67
68
69
70
71
72
73
74
75
76
77
78
79
80
81
82
83
84
85
86
87
88
89
90
91
92
93
94
95
96
97
98
99
100
101
102
103
104
105
106
107
108
109
110
111
112
113
114
115
116
117
118
119
120
121
122
123
124
125
126
127
128
129
130
131
132
133
134
135
136
137
138
139
140
141
142
143
144
145
146
147
148
149
150
151
152
153
154
155
156
157
158
159
160
161
162
163
164
165
166
167
168
169
170
171
172
173
174
175
176
177
178
179
180
181
182
183
184
185
186
187
188
189
190
191
192
193
194
195
196
197
198
199
200
201
202
203
204
205
206
207
208
209
210
211
212
213
214
215
216
217
218
219
220
221
222
223
224
225
226
227
228
229
230
231
232
233
234
235
236

