%nproc=8
%mem=1000MB
# rb3lyp/6-311+g** NMR geom=connectivity

Title

0 1
C    -4.0500558   -0.5771862    0.8136712
H    -5.0263804   -1.0082727    1.0024760
C    -3.9381552    0.6617804    0.2400876
H    -4.8252424    1.2338890   -0.0111295
C    -2.6768410    1.2433246    0.0057578
C    -1.4974121    0.5051527    0.2848253
C    -1.6508332   -0.7338728    0.9404026
H    -0.7713646   -1.2730967    1.2633753
C    -2.8898548   -1.2624035    1.1994307
H    -2.9683706   -2.2124563    1.7152676
C    -2.5773185    2.5963696   -0.4192930
H    -3.4870728    3.1412239   -0.6474055
C    -1.3741895    3.2147896   -0.4364030
H    -1.2997315    4.2742019   -0.6578144
C    -0.1719488    2.4994090   -0.1734588
C    -0.2043917    1.1018437    0.0192689
C     1.0513491    3.2042560   -0.0676222
H     1.0427344    4.2819499   -0.1896997
C     2.1942091    2.5487446    0.2579577
H     3.1168527    3.0912848    0.4334727
C     2.2216473    1.1336562    0.2934990
C     1.0486931    0.3945528    0.0302412
C     3.4483363    0.4614633    0.5573939
H     4.3095794    1.0606054    0.8334846
C     3.5427346   -0.8855926    0.4749463
H     4.4731467   -1.3939704    0.7038822
C     2.4490052   -1.6474447   -0.0196319
C     1.2150704   -1.0057258   -0.3013573
C     0.2531113   -1.7434440   -1.0216591
H    -0.6541356   -1.2535051   -1.3462847
C     0.4494193   -3.0628597   -1.3413779
H    -0.3083162   -3.5944309   -1.9054060
C     1.6251726   -3.7207967   -0.9552541
H     1.7670048   -4.7687404   -1.1927019
C     2.6109872   -3.0144177   -0.3183050
H     3.5525612   -3.4902813   -0.0646367
Bq         2.9357602472    -0.2445650601     0.9673606384
Bq         2.9871179759    -0.2161097421     0.7761730902
Bq         2.9100813829    -0.2587927192     1.0629544125
Bq         3.0127968402    -0.2018820830     0.6805793162
Bq         2.8844025186    -0.2730203782     1.1585481866
Bq         3.0384757045    -0.1876544240     0.5849855421
Bq         2.8587236543    -0.2872480372     1.2541419607
Bq         3.0641545688    -0.1734267650     0.4893917680
Bq         2.8330447899    -0.3014756962     1.3497357348
Bq         3.0898334332    -0.1591991060     0.3937979939
Bq         2.9614391116    -0.2303374011     0.8717668643
Bq         2.9320691967    -0.1455823661     0.9811011780
Bq         2.9834269253    -0.1171270480     0.7899136298
Bq         2.9063903324    -0.1598100251     1.0766949521
Bq         3.0091057897    -0.1028993890     0.6943198557
Bq         2.8807114681    -0.1740376842     1.1722887262
Bq         3.0347846540    -0.0886717300     0.5987260816
Bq         2.8550326037    -0.1882653432     1.2678825003
Bq         3.0604635183    -0.0744440710     0.5031323075
Bq         2.8293537394    -0.2024930022     1.3634762744
Bq         3.0861423826    -0.0602164119     0.4075385334
Bq         2.9577480610    -0.1313547071     0.8855074039
Bq         2.9283781462    -0.0465996721     0.9948417176
Bq         2.9797358748    -0.0181443540     0.8036541694
Bq         2.9026992818    -0.0608273311     1.0904354917
Bq         3.0054147391    -0.0039166950     0.7080603953
Bq         2.8770204175    -0.0750549901     1.1860292657
Bq         3.0310936035     0.0103109641     0.6124666212
Bq         2.8513415532    -0.0892826491     1.2816230398
Bq         3.0567724678     0.0245386231     0.5168728471
Bq         2.8256626889    -0.1035103082     1.3772168139
Bq         3.0824513321     0.0387662821     0.4212790730
Bq         2.9540570105    -0.0323720130     0.8992479435
Bq         2.9246870956     0.0523830220     1.0085822571
Bq         2.9760448243     0.0808383400     0.8173947089
Bq         2.8990082313     0.0381553629     1.1041760312
Bq         3.0017236886     0.0950659991     0.7218009348
Bq         2.8733293670     0.0239277039     1.1997698053
Bq         3.0274025529     0.1092936581     0.6262071607
Bq         2.8476505027     0.0097000449     1.2953635794
Bq         3.0530814172     0.1235213171     0.5306133866
Bq         2.8219716383    -0.0045276141     1.3909573535
Bq         3.0787602816     0.1377489761     0.4350196125
Bq         2.9503659600     0.0666106810     0.9129884830
Bq         2.9209960451     0.1513657160     1.0223227967
Bq         2.9723537737     0.1798210341     0.8311352485
Bq         2.8953171808     0.1371380570     1.1179165708
Bq         2.9980326381     0.1940486931     0.7355414744
Bq         2.8696383164     0.1229103980     1.2135103449
Bq         3.0237115024     0.2082763521     0.6399477003
Bq         2.8439594521     0.1086827389     1.3091041190
Bq         3.0493903667     0.2225040112     0.5443539262
Bq         2.8182805878     0.0944550799     1.4046978931
Bq         3.0750692310     0.2367316702     0.4487601521
Bq         2.9466749094     0.1655933750     0.9267290226
Bq         2.9173049946     0.2503484100     1.0360633362
Bq         2.9686627232     0.2788037281     0.8448757880
Bq         2.8916261302     0.2361207510     1.1316571103
Bq         2.9943415875     0.2930313871     0.7492820139
Bq         2.8659472659     0.2218930920     1.2272508844
Bq         3.0200204518     0.3072590462     0.6536882399
Bq         2.8402684016     0.2076654330     1.3228446585
Bq         3.0456993162     0.3214867052     0.5580944658
Bq         2.8145895373     0.1934377739     1.4184384326
Bq         3.0713781805     0.3357143642     0.4625006917
Bq         2.9429838589     0.2645760691     0.9404695621
Bq         2.9136139440     0.3493311041     1.0498038758
Bq         2.9649716727     0.3777864221     0.8586163276
Bq         2.8879350797     0.3351034451     1.1453976499
Bq         2.9906505370     0.3920140812     0.7630225535
Bq         2.8622562154     0.3208757860     1.2409914240
Bq         3.0163294013     0.4062417402     0.6674287794
Bq         2.8365773511     0.3066481270     1.3365851981
Bq         3.0420082656     0.4204693992     0.5718350053
Bq         2.8108984867     0.2924204680     1.4321789722
Bq         3.0676871300     0.4346970583     0.4762412312
Bq         2.9392928083     0.3635587631     0.9542101017
Bq         2.9099228935     0.4483137981     1.0635444154
Bq         2.9612806221     0.4767691162     0.8723568672
Bq         2.8842440292     0.4340861391     1.1591381894
Bq         2.9869594865     0.4909967752     0.7767630931
Bq         2.8585651648     0.4198584801     1.2547319635
Bq         3.0126383508     0.5052244342     0.6811693190
Bq         2.8328863005     0.4056308210     1.3503257376
Bq         3.0383172151     0.5194520933     0.5855755449
Bq         2.8072074362     0.3914031620     1.4459195117
Bq         3.0639960794     0.5336797523     0.4899817708
Bq         2.9356017578     0.4625414571     0.9679506413
Bq         2.9062318430     0.5472964922     1.0772849549
Bq         2.9575895716     0.5757518102     0.8860974067
Bq         2.8805529786     0.5330688331     1.1728787290
Bq         2.9832684359     0.5899794692     0.7905036326
Bq         2.8548741143     0.5188411741     1.2684725031
Bq         3.0089473002     0.6042071283     0.6949098585
Bq         2.8291952500     0.5046135151     1.3640662772
Bq         3.0346261646     0.6184347873     0.5993160844
Bq         2.8035163857     0.4903858560     1.4596600513
Bq         3.0603050289     0.6326624463     0.5037223103
Bq         2.9319107073     0.5615241512     0.9816911808
Bq         2.9025407924     0.6462791862     1.0910254945
Bq         2.9538985211     0.6747345042     0.8998379463
Bq         2.8768619281     0.6320515272     1.1866192686
Bq         2.9795773854     0.6889621633     0.8042441722
Bq         2.8511830638     0.6178238681     1.2822130427
Bq         3.0052562497     0.7031898223     0.7086503981
Bq         2.8255041994     0.6035962091     1.3778068168
Bq         3.0309351140     0.7174174813     0.6130566240
Bq         2.7998253351     0.5893685501     1.4734005908
Bq         3.0566139784     0.7316451404     0.5174628499
Bq         2.9282196567     0.6605068452     0.9954317204
Bq         2.8988497419     0.7452618802     1.1047660340
Bq         2.9502074705     0.7737171983     0.9135784858
Bq         2.8731708776     0.7310342212     1.2003598081
Bq         2.9758863348     0.7879448573     0.8179847117
Bq         2.8474920132     0.7168065622     1.2959535822
Bq         3.0015651992     0.8021725163     0.7223909376
Bq         2.8218131489     0.7025789031     1.3915473563
Bq         3.0272440635     0.8164001754     0.6267971636
Bq         2.7961342846     0.6883512441     1.4871411304
Bq         3.0529229278     0.8306278344     0.5312033895
Bq         2.9245286062     0.7594895393     1.0091722599
Bq         2.8951586913     0.8442445743     1.1185065736
Bq         2.9465164200     0.8726998923     0.9273190254
Bq         2.8694798270     0.8300169152     1.2141003477
Bq         2.9721952843     0.8869275513     0.8317252513
Bq         2.8438009627     0.8157892562     1.3096941218
Bq         2.9978741486     0.9011552104     0.7361314772
Bq         2.8181220984     0.8015615972     1.4052878959
Bq         3.0235530130     0.9153828694     0.6405377031
Bq         2.7924432341     0.7873339381     1.5008816700
Bq         3.0492318773     0.9296105284     0.5449439290
Bq         2.9208375557     0.8584722333     1.0229127995
Bq         2.8914676408     0.9432272683     1.1322471131
Bq         2.9428253695     0.9716825864     0.9410595650
Bq         2.8657887765     0.9289996093     1.2278408872
Bq         2.9685042338     0.9859102454     0.8454657909
Bq         2.8401099122     0.9147719502     1.3234346613
Bq         2.9941830981     1.0001379044     0.7498720168
Bq         2.8144310478     0.9005442912     1.4190284354
Bq         3.0198619624     1.0143655634     0.6542782427
Bq         2.7887521835     0.8863166322     1.5146222095
Bq         3.0455408267     1.0285932225     0.5586844686
Bq         2.9171465051     0.9574549273     1.0366533391
Bq         2.8877765903     1.0422099623     1.1459876527
Bq         2.9391343189     1.0706652804     0.9548001045
Bq         2.8620977260     1.0279823033     1.2415814268
Bq         2.9648131832     1.0848929394     0.8592063304
Bq         2.8364188616     1.0137546443     1.3371752009
Bq         2.9904920476     1.0991205984     0.7636125563
Bq         2.8107399973     0.9995269852     1.4327689750
Bq         3.0161709119     1.1133482575     0.6680187822
Bq         2.7850611330     0.9852993262     1.5283627491
Bq         3.0418497762     1.1275759165     0.5724250081
Bq         2.9134554546     1.0564376214     1.0503938786
Bq         2.8840855397     1.1411926564     1.1597281923
Bq         2.9354432684     1.1696479744     0.9685406441
Bq         2.8584066754     1.1269649973     1.2553219664
Bq         2.9611221327     1.1838756335     0.8729468700
Bq         2.8327278111     1.1127373383     1.3509157405
Bq         2.9868009970     1.1981032925     0.7773530959
Bq         2.8070489468     1.0985096793     1.4465095145
Bq         3.0124798614     1.2123309515     0.6817593218
Bq         2.7813700824     1.0842820203     1.5421032886
Bq         3.0381587257     1.2265586105     0.5861655477
Bq         2.9097644041     1.1554203154     1.0641344182
Bq         2.8803944892     1.2401753504     1.1734687318
Bq         2.9317522178     1.2686306685     0.9822811836
Bq         2.8547156249     1.2259476914     1.2690625059
Bq         2.9574310822     1.2828583275     0.8866874095
Bq         2.8290367606     1.2117200323     1.3646562800
Bq         2.9831099465     1.2970859865     0.7910936354
Bq         2.8033578962     1.1974923733     1.4602500541
Bq         3.0087888108     1.3113136455     0.6954998613
Bq         2.7776790319     1.1832647143     1.5558438282
Bq         3.0344676751     1.3255413046     0.5999060873
Bq         2.9060733535     1.2544030094     1.0778749577
Bq         2.8767034387     1.3391580444     1.1872092714
Bq         2.9280611673     1.3676133625     0.9960217232
Bq         2.8510245743     1.3249303854     1.2828030455
Bq         2.9537400316     1.3818410215     0.9004279491
Bq         2.8253457100     1.3107027264     1.3783968196
Bq         2.9794188960     1.3960686806     0.8048341750
Bq         2.7996668457     1.2964750674     1.4739905937
Bq         3.0050977603     1.4102963396     0.7092404009
Bq         2.7739879814     1.2822474083     1.5695843678
Bq         3.0307766246     1.4245239986     0.6136466268
Bq         2.9023823030     1.3533857035     1.0916154973
Bq         2.8730123881     1.4381407385     1.2009498109
Bq         2.9243701168     1.4665960565     1.0097622628
Bq         2.8473335238     1.4239130794     1.2965435850
Bq         2.9500489811     1.4808237156     0.9141684887
Bq         2.8216546595     1.4096854204     1.3921373591
Bq         2.9757278454     1.4950513746     0.8185747146
Bq         2.7959757952     1.3954577614     1.4877311332
Bq         3.0014067097     1.5092790336     0.7229809405
Bq         2.7702969308     1.3812301024     1.5833249073
Bq         3.0270855741     1.5235066926     0.6273871664
Bq         2.8986912525     1.4523683975     1.1053560368
Bq         2.8693213376     1.5371234325     1.2146903505
Bq         2.9206790662     1.5655787506     1.0235028023

1
2
3
4
5
6
7
8
9
10
11
12
13
14
15
16
17
18
19
20
21
22
23
24
25
26
27
28
29
30
31
32
33
34
35
36
37
38
39
40
41
42
43
44
45
46
47
48
49
50
51
52
53
54
55
56
57
58
59
60
61
62
63
64
65
66
67
68
69
70
71
72
73
74
75
76
77
78
79
80
81
82
83
84
85
86
87
88
89
90
91
92
93
94
95
96
97
98
99
100
101
102
103
104
105
106
107
108
109
110
111
112
113
114
115
116
117
118
119
120
121
122
123
124
125
126
127
128
129
130
131
132
133
134
135
136
137
138
139
140
141
142
143
144
145
146
147
148
149
150
151
152
153
154
155
156
157
158
159
160
161
162
163
164
165
166
167
168
169
170
171
172
173
174
175
176
177
178
179
180
181
182
183
184
185
186
187
188
189
190
191
192
193
194
195
196
197
198
199
200
201
202
203
204
205
206
207
208
209
210
211
212
213
214
215
216
217
218
219
220
221
222
223
224
225
226
227
228
229
230
231
232
233
234
235
236

