%nproc=8
%mem=1000MB
# rb3lyp/6-311+g** NMR geom=connectivity

Title

0 1
C    -4.0500558   -0.5771862    0.8136712
H    -5.0263804   -1.0082727    1.0024760
C    -3.9381552    0.6617804    0.2400876
H    -4.8252424    1.2338890   -0.0111295
C    -2.6768410    1.2433246    0.0057578
C    -1.4974121    0.5051527    0.2848253
C    -1.6508332   -0.7338728    0.9404026
H    -0.7713646   -1.2730967    1.2633753
C    -2.8898548   -1.2624035    1.1994307
H    -2.9683706   -2.2124563    1.7152676
C    -2.5773185    2.5963696   -0.4192930
H    -3.4870728    3.1412239   -0.6474055
C    -1.3741895    3.2147896   -0.4364030
H    -1.2997315    4.2742019   -0.6578144
C    -0.1719488    2.4994090   -0.1734588
C    -0.2043917    1.1018437    0.0192689
C     1.0513491    3.2042560   -0.0676222
H     1.0427344    4.2819499   -0.1896997
C     2.1942091    2.5487446    0.2579577
H     3.1168527    3.0912848    0.4334727
C     2.2216473    1.1336562    0.2934990
C     1.0486931    0.3945528    0.0302412
C     3.4483363    0.4614633    0.5573939
H     4.3095794    1.0606054    0.8334846
C     3.5427346   -0.8855926    0.4749463
H     4.4731467   -1.3939704    0.7038822
C     2.4490052   -1.6474447   -0.0196319
C     1.2150704   -1.0057258   -0.3013573
C     0.2531113   -1.7434440   -1.0216591
H    -0.6541356   -1.2535051   -1.3462847
C     0.4494193   -3.0628597   -1.3413779
H    -0.3083162   -3.5944309   -1.9054060
C     1.6251726   -3.7207967   -0.9552541
H     1.7670048   -4.7687404   -1.1927019
C     2.6109872   -3.0144177   -0.3183050
H     3.5525612   -3.4902813   -0.0646367
Bq         2.0206955278    -0.8968642556     1.1918422445
Bq         2.4193131657    -0.6307077445     0.3141949974
Bq         2.2200043468    -0.7637860000     0.7530186210
Bq         2.1691361096    -0.6940086684     0.8650165961
Bq         2.2488596372    -0.6407773662     0.6894871467
Bq         2.1292743458    -0.7206243196     0.9527813209
Bq         2.2887214010    -0.6141617151     0.6017224220
Bq         2.0894125820    -0.7472399707     1.0405460456
Bq         2.3285831648    -0.5875460640     0.5139576973
Bq         2.0495508183    -0.7738556218     1.1283107703
Bq         2.3684449286    -0.5609304129     0.4261929726
Bq         2.0096890545    -0.8004712729     1.2160754950
Bq         2.4083066923    -0.5343147618     0.3384282479
Bq         2.2089978734    -0.6673930173     0.7772518714
Bq         2.1581296362    -0.5976156857     0.8892498466
Bq         2.2378531638    -0.5443843835     0.7137203972
Bq         2.1182678725    -0.6242313368     0.9770145713
Bq         2.2777149276    -0.5177687324     0.6259556725
Bq         2.0784061087    -0.6508469879     1.0647792960
Bq         2.3175766914    -0.4911530813     0.5381909478
Bq         2.0385443449    -0.6774626391     1.1525440207
Bq         2.3574384552    -0.4645374302     0.4504262230
Bq         1.9986825811    -0.7040782902     1.2403087455
Bq         2.3973002190    -0.4379217791     0.3626614983
Bq         2.1979914000    -0.5710000346     0.8014851219
Bq         2.1471231629    -0.5012227030     0.9134830971
Bq         2.2268466904    -0.4479914008     0.7379536476
Bq         2.1072613991    -0.5278383541     1.0012478218
Bq         2.2667084542    -0.4213757497     0.6501889229
Bq         2.0673996353    -0.5544540052     1.0890125465
Bq         2.3065702180    -0.3947600986     0.5624241982
Bq         2.0275378715    -0.5810696563     1.1767772712
Bq         2.3464319818    -0.3681444475     0.4746594735
Bq         1.9876761077    -0.6076853074     1.2645419959
Bq         2.3862937456    -0.3415287964     0.3868947488
Bq         2.1869849267    -0.4746070519     0.8257183724
Bq         2.1361166895    -0.4048297203     0.9377163475
Bq         2.2158402171    -0.3515984181     0.7621868981
Bq         2.0962549257    -0.4314453714     1.0254810722
Bq         2.2557019809    -0.3249827670     0.6744221734
Bq         2.0563931619    -0.4580610225     1.1132457969
Bq         2.2955637446    -0.2983671159     0.5866574487
Bq         2.0165313981    -0.4846766736     1.2010105217
Bq         2.3354255084    -0.2717514648     0.4988927240
Bq         1.9766696343    -0.5112923247     1.2887752464
Bq         2.3752872722    -0.2451358137     0.4111279992
Bq         2.1759784533    -0.3782140692     0.8499516228
Bq         2.1251102161    -0.3084367376     0.9619495980
Bq         2.2048337437    -0.2552054354     0.7864201486
Bq         2.0852484523    -0.3350523887     1.0497143227
Bq         2.2446955075    -0.2285897843     0.6986554238
Bq         2.0453866886    -0.3616680398     1.1374790474
Bq         2.2845572713    -0.2019741332     0.6108906991
Bq         2.0055249248    -0.3882836909     1.2252437721
Bq         2.3244190351    -0.1753584821     0.5231259744
Bq         1.9656631610    -0.4148993420     1.3130084968
Bq         2.3642807989    -0.1487428310     0.4353612497
Bq         2.1649719799    -0.2818210865     0.8741848733
Bq         2.1141037428    -0.2120437549     0.9861828484
Bq         2.1938272703    -0.1588124527     0.8106533990
Bq         2.0742419790    -0.2386594060     1.0739475731
Bq         2.2336890341    -0.1321968016     0.7228886743
Bq         2.0343802152    -0.2652750571     1.1617122979
Bq         2.2735507979    -0.1055811505     0.6351239496
Bq         1.9945184514    -0.2918907082     1.2494770226
Bq         2.3134125617    -0.0789654993     0.5473592249
Bq         1.9546566876    -0.3185063593     1.3372417473
Bq         2.3532743255    -0.0523498482     0.4595945002
Bq         2.1539655065    -0.1854281038     0.8984181237
Bq         2.1030972694    -0.1156507722     1.0104160989
Bq         2.1828207970    -0.0624194700     0.8348866495
Bq         2.0632355056    -0.1422664233     1.0981808236
Bq         2.2226825607    -0.0358038189     0.7471219248
Bq         2.0233737418    -0.1688820744     1.1859455483
Bq         2.2625443245    -0.0091881677     0.6593572000
Bq         1.9835119780    -0.1954977255     1.2737102730
Bq         2.3024060883     0.0174274834     0.5715924753
Bq         1.9436502142    -0.2221133766     1.3614749977
Bq         2.3422678521     0.0440431345     0.4838277506
Bq         2.1429590332    -0.0890351211     0.9226513742
Bq         2.7444698113    -4.9352999078    -0.1598930364
Bq         2.8241933389    -4.8820686056    -0.3354224858
Bq         2.7046080475    -4.9619155589    -0.0721283117
Bq         2.8640551027    -4.8554529545    -0.4231872105
Bq         2.6647462837    -4.9885312100     0.0156364130
Bq         2.9039168664    -4.8288373034    -0.5109519352
Bq         2.6248845199    -5.0151468611     0.1034011378
Bq         2.9437786302    -4.8022216522    -0.5987166599
Bq         2.5850227561    -5.0417625122     0.1911658625
Bq         2.9836403940    -4.7756060011    -0.6864813847
Bq         2.7843315751    -4.9086842567    -0.2476577611
Bq         2.7334633379    -4.8389069251    -0.1356597859
Bq         2.8131868655    -4.7856756229    -0.3111892353
Bq         2.6936015741    -4.8655225762    -0.0478950612
Bq         2.8530486293    -4.7590599717    -0.3989539601
Bq         2.6537398104    -4.8921382273     0.0398696635
Bq         2.8929103931    -4.7324443206    -0.4867186848
Bq         2.6138780466    -4.9187538784     0.1276343882
Bq         2.9327721569    -4.7058286695    -0.5744834095
Bq         2.5740162828    -4.9453695295     0.2153991129
Bq         2.9726339207    -4.6792130184    -0.6622481342
Bq         2.7733251017    -4.8122912740    -0.2234245106
Bq         2.7224568646    -4.7425139424    -0.1114265355
Bq         2.8021803921    -4.6892826401    -0.2869559849
Bq         2.6825951008    -4.7691295935    -0.0236618107
Bq         2.8420421559    -4.6626669890    -0.3747207096
Bq         2.6427333370    -4.7957452446     0.0641029140
Bq         2.8819039197    -4.6360513379    -0.4624854343
Bq         2.6028715732    -4.8223608957     0.1518676387
Bq         2.9217656835    -4.6094356868    -0.5502501590
Bq         2.5630098094    -4.8489765468     0.2396323634
Bq         2.9616274473    -4.5828200357    -0.6380148837
Bq         2.7623186283    -4.7158982912    -0.1991912602
Bq         2.7114503912    -4.6461209596    -0.0871932850
Bq         2.7911739188    -4.5928896574    -0.2627227344
Bq         2.6715886274    -4.6727366108     0.0005714397
Bq         2.8310356825    -4.5662740063    -0.3504874591
Bq         2.6317268636    -4.6993522619     0.0883361644
Bq         2.8708974463    -4.5396583552    -0.4382521839
Bq         2.5918650998    -4.7259679130     0.1761008891
Bq         2.9107592101    -4.5130427041    -0.5260169086
Bq         2.5520033360    -4.7525835641     0.2638656138
Bq         2.9506209739    -4.4864270530    -0.6137816333
Bq         2.7513121550    -4.6195053085    -0.1749580097
Bq         2.7004439178    -4.5497279769    -0.0629600345
Bq         2.7801674454    -4.4964966747    -0.2384894840
Bq         2.6605821540    -4.5763436280     0.0248046902
Bq         2.8200292092    -4.4698810236    -0.3262542087
Bq         2.6207203902    -4.6029592791     0.1125694149
Bq         2.8598909730    -4.4432653725    -0.4140189334
Bq         2.5808586264    -4.6295749303     0.2003341396
Bq         2.8997527367    -4.4166497214    -0.5017836581
Bq         2.5409968627    -4.6561905814     0.2880988643
Bq         2.9396145005    -4.3900340703    -0.5895483828
Bq         2.7403056816    -4.5231123258    -0.1507247593
Bq         2.6894374444    -4.4533349942    -0.0387267841
Bq         2.7691609720    -4.4001036920    -0.2142562335
Bq         2.6495756807    -4.4799506453     0.0490379406
Bq         2.8090227358    -4.3734880409    -0.3020209582
Bq         2.6097139169    -4.5065662964     0.1368026653
Bq         2.8488844996    -4.3468723898    -0.3897856829
Bq         2.5698521531    -4.5331819475     0.2245673901
Bq         2.8887462634    -4.3202567387    -0.4775504077
Bq         2.5299903893    -4.5597975986     0.3123321148
Bq         2.9286080272    -4.2936410876    -0.5653151324
Bq         2.7292992082    -4.4267193431    -0.1264915088
Bq         2.6784309711    -4.3569420115    -0.0144935336
Bq         2.7581544986    -4.3037107093    -0.1900229831
Bq         2.6385692073    -4.3835576626     0.0732711911
Bq         2.7980162624    -4.2770950582    -0.2777877078
Bq         2.5987074435    -4.4101733137     0.1610359158
Bq         2.8378780262    -4.2504794071    -0.3655524325
Bq         2.5588456797    -4.4367889648     0.2488006405
Bq         2.8777397900    -4.2238637560    -0.4533171572
Bq         2.5189839159    -4.4634046159     0.3365653652
Bq         2.9176015538    -4.1972481049    -0.5410818819
Bq         2.7182927349    -4.3303263604    -0.1022582583
Bq         2.6674244977    -4.2605490288     0.0097397168
Bq         2.7471480253    -4.2073177266    -0.1657897326
Bq         2.6275627339    -4.2871646799     0.0975044415
Bq         2.7870097891    -4.1807020755    -0.2535544573
Bq         2.5877009701    -4.3137803310     0.1852691663
Bq         2.8268715528    -4.1540864244    -0.3413191820
Bq         2.5478392063    -4.3403959821     0.2730338910
Bq         2.8667333166    -4.1274707733    -0.4290839067
Bq         2.5079774425    -4.3670116332     0.3607986157
Bq         2.9065950804    -4.1008551222    -0.5168486314
Bq         2.7072862615    -4.2339333777    -0.0780250079
Bq         2.6564180243    -4.1641560461     0.0339729673
Bq         2.7361415519    -4.1109247439    -0.1415564821
Bq         2.6165562605    -4.1907716972     0.1217376920
Bq         2.7760033157    -4.0843090928    -0.2293212069
Bq         2.5766944967    -4.2173873483     0.2095024167
Bq         2.8158650795    -4.0576934417    -0.3170859316
Bq         2.5368327330    -4.2440029994     0.2972671414
Bq         2.8557268433    -4.0310777905    -0.4048506563
Bq         2.4969709692    -4.2706186505     0.3850318661
Bq         2.8955886070    -4.0044621394    -0.4926153810
Bq         2.6962797881    -4.1375403950    -0.0537917574
Bq         2.6454115510    -4.0677630634     0.0582062177
Bq         2.7251350785    -4.0145317612    -0.1173232317
Bq         2.6055497872    -4.0943787145     0.1459709425
Bq         2.7649968423    -3.9879161100    -0.2050879564
Bq         2.5656880234    -4.1209943656     0.2337356672
Bq         2.8048586061    -3.9613004589    -0.2928526811
Bq         2.5258262596    -4.1476100167     0.3215003919
Bq         2.8447203699    -3.9346848078    -0.3806174058
Bq         2.4859644958    -4.1742256678     0.4092651166
Bq         2.8845821337    -3.9080691567    -0.4683821305
Bq         2.6852733147    -4.0411474123    -0.0295585070
Bq         2.6344050776    -3.9713700807     0.0824394682
Bq         2.7141286052    -3.9181387784    -0.0930899812
Bq         2.5945433138    -3.9979857318     0.1702041929
Bq         2.7539903689    -3.8915231273    -0.1808547059
Bq         2.5546815500    -4.0246013829     0.2579689176
Bq         2.7938521327    -3.8649074762    -0.2686194306
Bq         2.5148197862    -4.0512170340     0.3457336423
Bq         2.8337138965    -3.8382918251    -0.3563841554
Bq         2.4749580224    -4.0778326851     0.4334983671
Bq         2.8735756603    -3.8116761740    -0.4441488801

1
2
3
4
5
6
7
8
9
10
11
12
13
14
15
16
17
18
19
20
21
22
23
24
25
26
27
28
29
30
31
32
33
34
35
36
37
38
39
40
41
42
43
44
45
46
47
48
49
50
51
52
53
54
55
56
57
58
59
60
61
62
63
64
65
66
67
68
69
70
71
72
73
74
75
76
77
78
79
80
81
82
83
84
85
86
87
88
89
90
91
92
93
94
95
96
97
98
99
100
101
102
103
104
105
106
107
108
109
110
111
112
113
114
115
116
117
118
119
120
121
122
123
124
125
126
127
128
129
130
131
132
133
134
135
136
137
138
139
140
141
142
143
144
145
146
147
148
149
150
151
152
153
154
155
156
157
158
159
160
161
162
163
164
165
166
167
168
169
170
171
172
173
174
175
176
177
178
179
180
181
182
183
184
185
186
187
188
189
190
191
192
193
194
195
196
197
198
199
200
201
202
203
204
205
206
207
208
209
210
211
212
213
214
215
216
217
218
219
220
221
222
223
224
225
226
227
228
229
230
231
232
233
234
235
236

