%nproc=8
%mem=1000MB
# rb3lyp/6-311+g** NMR geom=connectivity

Title

0 1
C    -4.0500558   -0.5771862    0.8136712
H    -5.0263804   -1.0082727    1.0024760
C    -3.9381552    0.6617804    0.2400876
H    -4.8252424    1.2338890   -0.0111295
C    -2.6768410    1.2433246    0.0057578
C    -1.4974121    0.5051527    0.2848253
C    -1.6508332   -0.7338728    0.9404026
H    -0.7713646   -1.2730967    1.2633753
C    -2.8898548   -1.2624035    1.1994307
H    -2.9683706   -2.2124563    1.7152676
C    -2.5773185    2.5963696   -0.4192930
H    -3.4870728    3.1412239   -0.6474055
C    -1.3741895    3.2147896   -0.4364030
H    -1.2997315    4.2742019   -0.6578144
C    -0.1719488    2.4994090   -0.1734588
C    -0.2043917    1.1018437    0.0192689
C     1.0513491    3.2042560   -0.0676222
H     1.0427344    4.2819499   -0.1896997
C     2.1942091    2.5487446    0.2579577
H     3.1168527    3.0912848    0.4334727
C     2.2216473    1.1336562    0.2934990
C     1.0486931    0.3945528    0.0302412
C     3.4483363    0.4614633    0.5573939
H     4.3095794    1.0606054    0.8334846
C     3.5427346   -0.8855926    0.4749463
H     4.4731467   -1.3939704    0.7038822
C     2.4490052   -1.6474447   -0.0196319
C     1.2150704   -1.0057258   -0.3013573
C     0.2531113   -1.7434440   -1.0216591
H    -0.6541356   -1.2535051   -1.3462847
C     0.4494193   -3.0628597   -1.3413779
H    -0.3083162   -3.5944309   -1.9054060
C     1.6251726   -3.7207967   -0.9552541
H     1.7670048   -4.7687404   -1.1927019
C     2.6109872   -3.0144177   -0.3183050
H     3.5525612   -3.4902813   -0.0646367
Bq        -0.9818577969     1.7241724191     0.0752409697
Bq        -0.9836277748     1.9415860041     0.5254944541
Bq        -0.9815038014     1.6806897021    -0.0148097272
Bq        -0.9839817704     1.9850687211     0.6155451510
Bq        -0.9811498058     1.6372069851    -0.1048604241
Bq        -0.9843357660     2.0285514381     0.7055958479
Bq        -0.9807958102     1.5937242681    -0.1949111210
Bq        -0.9825657881     1.8111378531     0.2553423635
Bq        -0.9827488514     1.9446719628     0.3019106793
Bq        -0.9820408602     1.8577065288     0.1218092855
Bq        -0.9831028470     1.9881546798     0.3919613762
Bq        -0.9816868647     1.8142238118     0.0317585887
Bq        -0.9834568425     2.0316373968     0.4820120731
Bq        -0.9813328691     1.7707410947    -0.0582921082
Bq        -0.9838108381     2.0751201138     0.5720627700
Bq        -0.9809788735     1.7272583777    -0.1483428051
Bq        -0.9841648337     2.1186028308     0.6621134668
Bq        -0.9806248779     1.6837756607    -0.2383935020
Bq        -0.9823948558     1.9011892458     0.2118599824
Bq        -0.9825779191     2.0347233554     0.2584282983
Bq        -0.9818699280     1.9477579214     0.0783269045
Bq        -0.9829319147     2.0782060724     0.3484789952
Bq        -0.9815159324     1.9042752044    -0.0117237924
Bq        -0.9832859103     2.1216887894     0.4385296920
Bq        -0.9811619368     1.8607924874    -0.1017744893
Bq        -0.9836399058     2.1651715065     0.5285803889
Bq        -0.9808079412     1.8173097704    -0.1918251861
Bq        -0.9839939014     2.2086542235     0.6186310858
Bq        -0.9804539457     1.7738270534    -0.2818758830
Bq        -0.9822239235     1.9912406384     0.1683776014
Bq        -0.9824069868     2.1247747481     0.2149459172
Bq        -0.9816989957     2.0378093141     0.0348445235
Bq        -0.9827609824     2.1682574651     0.3049966141
Bq        -0.9813450001     1.9943265971    -0.0552061734
Bq        -0.9831149780     2.2117401821     0.3950473110
Bq        -0.9809910045     1.9508438801    -0.1452568703
Bq        -0.9834689736     2.2552228991     0.4850980079
Bq        -0.9806370090     1.9073611631    -0.2353075672
Bq        -0.9838229691     2.2987056161     0.5751487048
Bq        -0.9802830134     1.8638784461    -0.3253582641
Bq        -0.9820529913     2.0812920311     0.1248952204
Bq        -0.9822360546     2.2148261408     0.1714635362
Bq        -0.9815280634     2.1278607068    -0.0086378576
Bq        -0.9825900501     2.2583088578     0.2615142331
Bq        -0.9811740678     2.0843779898    -0.0986885544
Bq        -0.9829440457     2.3017915748     0.3515649300
Bq        -0.9808200723     2.0408952728    -0.1887392513
Bq        -0.9832980413     2.3452742918     0.4416156269
Bq        -0.9804660767     1.9974125558    -0.2787899482
Bq        -0.9836520369     2.3887570088     0.5316663237
Bq        -0.9801120811     1.9539298388    -0.3688406451
Bq        -0.9818820590     2.1713434238     0.0814128393
Bq        -0.9820651223     2.3048775334     0.1279811552
Bq        -0.9813571311     2.2179120994    -0.0521202386
Bq        -0.9824191179     2.3483602505     0.2180318521
Bq        -0.9810031356     2.1744293824    -0.1421709355
Bq        -0.9827731134     2.3918429675     0.3080825489
Bq        -0.9806491400     2.1309466654    -0.2322216324
Bq        -0.9831271090     2.4353256845     0.3981332458
Bq        -0.9802951444     2.0874639484    -0.3222723292
Bq        -0.9834811046     2.4788084015     0.4881839427
Bq        -0.9799411488     2.0439812314    -0.4123230261
Bq        -0.9817111267     2.2613948164     0.0379304583
Bq        -0.9818941900     2.3949289261     0.0844987741
Bq        -0.9811861989     2.3079634921    -0.0956026196
Bq        -0.9822481856     2.4384116431     0.1745494710
Bq        -0.9808322033     2.2644807751    -0.1856533165
Bq        -0.9826021812     2.4818943601     0.2646001679
Bq        -0.9804782077     2.2209980581    -0.2757040134
Bq        -0.9829561767     2.5253770771     0.3546508648
Bq        -0.9801242121     2.1775153411    -0.3657547103
Bq        -0.9833101723     2.5688597941     0.4447015617
Bq        -0.9797702166     2.1340326241    -0.4558054072
Bq        -0.9815401944     2.3514462091    -0.0055519227
Bq        -0.9817232577     2.4849803188     0.0410163931
Bq        -0.9810152666     2.3980148848    -0.1390850007
Bq        -0.9820772533     2.5284630358     0.1310670900
Bq        -0.9806612710     2.3545321678    -0.2291356975
Bq        -0.9824312489     2.5719457528     0.2211177869
Bq        -0.9803072754     2.3110494508    -0.3191863944
Bq        -0.9827852445     2.6154284698     0.3111684838
Bq        -0.9799532799     2.2675667338    -0.4092370913
Bq        -0.9831392400     2.6589111868     0.4012191806
Bq        -0.9795992843     2.2240840168    -0.4992877882
Bq        -0.9813692622     2.4414976018    -0.0490343038
Bq        -0.8902706441    -2.0175893147     2.2155285487
Bq        -0.8895626530    -2.1045547487     2.0354271549
Bq        -0.8906246397    -1.9741065977     2.3055792456
Bq        -0.8892086574    -2.1480374658     1.9453764580
Bq        -0.8909786353    -1.9306238807     2.3956299424
Bq        -0.8888546618    -2.1915201828     1.8553257611
Bq        -0.8913326308    -1.8871411637     2.4856806393
Bq        -0.8885006663    -2.2350028998     1.7652750643
Bq        -0.8916866264    -1.8436584467     2.5757313362
Bq        -0.8881466707    -2.2784856168     1.6752243674
Bq        -0.8899166485    -2.0610720317     2.1254778518
Bq        -0.8900997118    -1.9275379221     2.1720461676
Bq        -0.8893917207    -2.0145033561     1.9919447739
Bq        -0.8904537074    -1.8840552051     2.2620968645
Bq        -0.8890377251    -2.0579860731     1.9018940770
Bq        -0.8908077030    -1.8405724881     2.3521475614
Bq        -0.8886837296    -2.1014687901     1.8118433801
Bq        -0.8911616986    -1.7970897711     2.4421982583
Bq        -0.8883297340    -2.1449515071     1.7217926832
Bq        -0.8915156941    -1.7536070540     2.5322489552
Bq        -0.8879757384    -2.1884342241     1.6317419863
Bq        -0.8897457163    -1.9710206391     2.0819954708
Bq        -0.8899287796    -1.8374865294     2.1285637866
Bq        -0.8892207884    -1.9244519634     1.9484623928
Bq        -0.8902827751    -1.7940038124     2.2186144835
Bq        -0.8888667928    -1.9679346804     1.8584116960
Bq        -0.8906367707    -1.7505210954     2.3086651804
Bq        -0.8885127973    -2.0114173974     1.7683609991
Bq        -0.8909907663    -1.7070383784     2.3987158773
Bq        -0.8881588017    -2.0549001144     1.6783103022
Bq        -0.8913447619    -1.6635556614     2.4887665741
Bq        -0.8878048061    -2.0983828314     1.5882596053
Bq        -0.8895747840    -1.8809692464     2.0385130897
Bq        -0.8897578473    -1.7474351367     2.0850814056
Bq        -0.8890498561    -1.8344005707     1.9049800118
Bq        -0.8901118429    -1.7039524197     2.1751321025
Bq        -0.8886958606    -1.8778832877     1.8149293149
Bq        -0.8904658384    -1.6604697027     2.2651827993
Bq        -0.8883418650    -1.9213660047     1.7248786180
Bq        -0.8908198340    -1.6169869857     2.3552334962
Bq        -0.8879878694    -1.9648487217     1.6348279212
Bq        -0.8911738296    -1.5735042687     2.4452841931
Bq        -0.8876338739    -2.0083314388     1.5447772243
Bq        -0.8894038517    -1.7909178537     1.9950307087
Bq        -0.8895869150    -1.6573837441     2.0415990245
Bq        -0.8888789239    -1.7443491781     1.8614976308
Bq        -0.8899409106    -1.6139010270     2.1316497214
Bq        -0.8885249283    -1.7878318951     1.7714469339
Bq        -0.8902949062    -1.5704183100     2.2217004183
Bq        -0.8881709327    -1.8313146121     1.6813962370
Bq        -0.8906489017    -1.5269355930     2.3117511152
Bq        -0.8878169372    -1.8747973291     1.5913455401
Bq        -0.8910028973    -1.4834528760     2.4018018121
Bq        -0.8874629416    -1.9182800461     1.5012948433
Bq        -0.8892329194    -1.7008664611     1.9515483277
Bq        -0.8894159827    -1.5673323514     1.9981166435
Bq        -0.8887079916    -1.6542977854     1.8180152497
Bq        -0.8897699783    -1.5238496344     2.0881673404
Bq        -0.8883539960    -1.6977805024     1.7279645529
Bq        -0.8901239739    -1.4803669174     2.1782180373
Bq        -0.8880000005    -1.7412632194     1.6379138560
Bq        -0.8904779695    -1.4368842004     2.2682687342
Bq        -0.8876460049    -1.7847459364     1.5478631591
Bq        -0.8908319650    -1.3934014834     2.3583194310
Bq        -0.8872920093    -1.8282286534     1.4578124622
Bq        -0.8890619872    -1.6108150684     1.9080659466
Bq        -0.8892450505    -1.4772809587     1.9546342625
Bq        -0.8885370593    -1.5642463927     1.7745328687
Bq        -0.8895990460    -1.4337982417     2.0446849594
Bq        -0.8881830638    -1.6077291097     1.6844821718
Bq        -0.8899530416    -1.3903155247     2.1347356562
Bq        -0.8878290682    -1.6512118267     1.5944314750
Bq        -0.8903070372    -1.3468328077     2.2247863531
Bq        -0.8874750726    -1.6946945437     1.5043807781
Bq        -0.8906610328    -1.3033500907     2.3148370500
Bq        -0.8871210770    -1.7381772607     1.4143300812
Bq        -0.8888910549    -1.5207636757     1.8645835656
Bq        -0.8890741182    -1.3872295660     1.9111518814
Bq        -0.8883661271    -1.4741950001     1.7310504877
Bq        -0.8894281138    -1.3437468490     2.0012025783
Bq        -0.8880121315    -1.5176777171     1.6409997908
Bq        -0.8897821093    -1.3002641320     2.0912532752
Bq        -0.8876581359    -1.5611604341     1.5509490939
Bq        -0.8901361049    -1.2567814150     2.1813039721
Bq        -0.8873041403    -1.6046431511     1.4608983970
Bq        -0.8904901005    -1.2132986980     2.2713546690
Bq        -0.8869501448    -1.6481258681     1.3708477002
Bq        -0.8887201226    -1.4307122830     1.8211011846
Bq        -0.8889031859    -1.2971781734     1.8676695004
Bq        -0.8881951948    -1.3841436074     1.6875681067
Bq        -0.8892571815    -1.2536954564     1.9577201973
Bq        -0.8878411992    -1.4276263244     1.5975174098
Bq        -0.8896111771    -1.2102127394     2.0477708942
Bq        -0.8874872036    -1.4711090414     1.5074667129
Bq        -0.8899651726    -1.1667300224     2.1378215911
Bq        -0.8871332081    -1.5145917584     1.4174160160
Bq        -0.8903191682    -1.1232473054     2.2278722879
Bq        -0.8867792125    -1.5580744754     1.3273653191
Bq        -0.8885491904    -1.3406608904     1.7776188035
Bq        -0.8887322537    -1.2071267807     1.8241871194
Bq        -0.8880242625    -1.2940922147     1.6440857256
Bq        -0.8890862492    -1.1636440637     1.9142378163
Bq        -0.8876702669    -1.3375749317     1.5540350287
Bq        -0.8894402448    -1.1201613467     2.0042885131
Bq        -0.8873162714    -1.3810576487     1.4639843319
Bq        -0.8897942404    -1.0766786297     2.0943392100
Bq        -0.8869622758    -1.4245403657     1.3739336350
Bq        -0.8901482359    -1.0331959127     2.1843899069
Bq        -0.8866082802    -1.4680230827     1.2838829381
Bq        -0.8883782581    -1.2506094977     1.7341364225
Bq        -0.8885613214    -1.1170753880     1.7807047384
Bq        -0.8878533302    -1.2040408220     1.6006033446
Bq        -0.8889153170    -1.0735926710     1.8707554352
Bq        -0.8874993347    -1.2475235390     1.5105526477
Bq        -0.8892693125    -1.0301099540     1.9608061321

1
2
3
4
5
6
7
8
9
10
11
12
13
14
15
16
17
18
19
20
21
22
23
24
25
26
27
28
29
30
31
32
33
34
35
36
37
38
39
40
41
42
43
44
45
46
47
48
49
50
51
52
53
54
55
56
57
58
59
60
61
62
63
64
65
66
67
68
69
70
71
72
73
74
75
76
77
78
79
80
81
82
83
84
85
86
87
88
89
90
91
92
93
94
95
96
97
98
99
100
101
102
103
104
105
106
107
108
109
110
111
112
113
114
115
116
117
118
119
120
121
122
123
124
125
126
127
128
129
130
131
132
133
134
135
136
137
138
139
140
141
142
143
144
145
146
147
148
149
150
151
152
153
154
155
156
157
158
159
160
161
162
163
164
165
166
167
168
169
170
171
172
173
174
175
176
177
178
179
180
181
182
183
184
185
186
187
188
189
190
191
192
193
194
195
196
197
198
199
200
201
202
203
204
205
206
207
208
209
210
211
212
213
214
215
216
217
218
219
220
221
222
223
224
225
226
227
228
229
230
231
232
233
234
235
236

