%nproc=8
%mem=1000MB
# rb3lyp/6-311+g** NMR geom=connectivity

Title

0 1
C    -4.0500558   -0.5771862    0.8136712
H    -5.0263804   -1.0082727    1.0024760
C    -3.9381552    0.6617804    0.2400876
H    -4.8252424    1.2338890   -0.0111295
C    -2.6768410    1.2433246    0.0057578
C    -1.4974121    0.5051527    0.2848253
C    -1.6508332   -0.7338728    0.9404026
H    -0.7713646   -1.2730967    1.2633753
C    -2.8898548   -1.2624035    1.1994307
H    -2.9683706   -2.2124563    1.7152676
C    -2.5773185    2.5963696   -0.4192930
H    -3.4870728    3.1412239   -0.6474055
C    -1.3741895    3.2147896   -0.4364030
H    -1.2997315    4.2742019   -0.6578144
C    -0.1719488    2.4994090   -0.1734588
C    -0.2043917    1.1018437    0.0192689
C     1.0513491    3.2042560   -0.0676222
H     1.0427344    4.2819499   -0.1896997
C     2.1942091    2.5487446    0.2579577
H     3.1168527    3.0912848    0.4334727
C     2.2216473    1.1336562    0.2934990
C     1.0486931    0.3945528    0.0302412
C     3.4483363    0.4614633    0.5573939
H     4.3095794    1.0606054    0.8334846
C     3.5427346   -0.8855926    0.4749463
H     4.4731467   -1.3939704    0.7038822
C     2.4490052   -1.6474447   -0.0196319
C     1.2150704   -1.0057258   -0.3013573
C     0.2531113   -1.7434440   -1.0216591
H    -0.6541356   -1.2535051   -1.3462847
C     0.4494193   -3.0628597   -1.3413779
H    -0.3083162   -3.5944309   -1.9054060
C     1.6251726   -3.7207967   -0.9552541
H     1.7670048   -4.7687404   -1.1927019
C     2.6109872   -3.0144177   -0.3183050
H     3.5525612   -3.4902813   -0.0646367
Bq        -3.9158761767     3.0001343035    -0.1982047160
Bq        -3.9350860833     3.1228808903     0.2861136244
Bq        -3.9120341953     2.9755849861    -0.2950683841
Bq        -3.9389280647     3.1474302077     0.3829772925
Bq        -3.9081922140     2.9510356687    -0.3919320522
Bq        -3.9427700460     3.1719795251     0.4798409606
Bq        -3.9043502327     2.9264863513    -0.4887957203
Bq        -3.9235601393     3.0492329382    -0.0044773799
Bq        -3.9264291664     3.1707220875     0.0678562588
Bq        -3.9187452038     3.1216234528    -0.1258710774
Bq        -3.9302711478     3.1952714049     0.1647199269
Bq        -3.9149032225     3.0970741354    -0.2227347455
Bq        -3.9341131291     3.2198207223     0.2615835950
Bq        -3.9110612411     3.0725248180    -0.3195984135
Bq        -3.9379551104     3.2443700397     0.3584472631
Bq        -3.9072192598     3.0479755006    -0.4164620816
Bq        -3.9417970918     3.2689193570     0.4553109312
Bq        -3.9033772785     3.0234261833    -0.5133257497
Bq        -3.9225871851     3.1461727701    -0.0290074093
Bq        -3.9254562122     3.2676619195     0.0433262294
Bq        -3.9177722496     3.2185632847    -0.1504011068
Bq        -3.9292981935     3.2922112368     0.1401898975
Bq        -3.9139302682     3.1940139673    -0.2472647749
Bq        -3.9331401749     3.3167605542     0.2370535656
Bq        -3.9100882869     3.1694646500    -0.3441284430
Bq        -3.9369821562     3.3413098716     0.3339172337
Bq        -3.9062463056     3.1449153326    -0.4409921111
Bq        -3.9408241375     3.3658591890     0.4307809017
Bq        -3.9024043242     3.1203660152    -0.5378557792
Bq        -3.9216142309     3.2431126021    -0.0535374387
Bq        -3.9244832580     3.3646017514     0.0187962000
Bq        -3.9167992953     3.3155031167    -0.1749311362
Bq        -3.9283252393     3.3891510688     0.1156598680
Bq        -3.9129573140     3.2909537993    -0.2717948043
Bq        -3.9321672206     3.4137003862     0.2125235361
Bq        -3.9091153327     3.2664044819    -0.3686584724
Bq        -3.9360092020     3.4382497035     0.3093872042
Bq        -3.9052733513     3.2418551645    -0.4655221405
Bq        -3.9398511833     3.4627990209     0.4062508723
Bq        -3.9014313700     3.2173058471    -0.5623858086
Bq        -3.9206412767     3.3400524340    -0.0780674681
Bq        -3.9235103038     3.4615415833    -0.0057338295
Bq        -3.9158263411     3.4124429486    -0.1994611656
Bq        -3.9273522851     3.4860909007     0.0911298386
Bq        -3.9119843598     3.3878936312    -0.2963248337
Bq        -3.9311942664     3.5106402181     0.1879935067
Bq        -3.9081423784     3.3633443138    -0.3931885018
Bq        -3.9350362478     3.5351895355     0.2848571748
Bq        -3.9043003971     3.3387949965    -0.4900521699
Bq        -3.9388782291     3.5597388528     0.3817208429
Bq        -3.9004584158     3.3142456791    -0.5869158380
Bq        -3.9196683224     3.4369922660    -0.1025974976
Bq        -3.9225373495     3.5584814153    -0.0302638589
Bq        -3.9148533869     3.5093827805    -0.2239911951
Bq        -3.9263793309     3.5830307327     0.0665998092
Bq        -3.9110114056     3.4848334632    -0.3208548632
Bq        -3.9302213122     3.6075800500     0.1634634773
Bq        -3.9071694242     3.4602841458    -0.4177185313
Bq        -3.9340632935     3.6321293674     0.2603271454
Bq        -3.9033274429     3.4357348284    -0.5145821993
Bq        -3.9379052749     3.6566786848     0.3571908135
Bq        -3.8994854616     3.4111855110    -0.6114458674
Bq        -3.9186953682     3.5339320979    -0.1271275270
Bq        -3.9215643953     3.6554212472    -0.0547938883
Bq        -3.9138804327     3.6063226125    -0.2485212245
Bq        -3.9254063766     3.6799705646     0.0420697798
Bq        -3.9100384513     3.5817732951    -0.3453848926
Bq        -3.9292483580     3.7045198820     0.1389334479
Bq        -3.9061964700     3.5572239777    -0.4422485607
Bq        -3.9330903393     3.7290691993     0.2357971159
Bq        -3.9023544887     3.5326746603    -0.5391122288
Bq        -3.9369323206     3.7536185167     0.3326607840
Bq        -3.8985125073     3.5081253430    -0.6359758969
Bq        -3.9177224140     3.6308719298    -0.1516575564
Bq        -3.9205914411     3.7523610792    -0.0793239178
Bq        -3.9129074784     3.7032624444    -0.2730512539
Bq        -3.9244334224     3.7769103965     0.0175397503
Bq        -3.9090654971     3.6787131270    -0.3699149220
Bq        -3.9282754037     3.8014597139     0.1144034184
Bq        -3.9052235158     3.6541638097    -0.4667785901
Bq        -3.9321173851     3.8260090313     0.2112670865
Bq        -3.9013815344     3.6296144923    -0.5636422582
Bq        -3.9359593664     3.8505583487     0.3081307546
Bq        -3.8975395531     3.6050651749    -0.6605059263
Bq        -3.9167494598     3.7278117618    -0.1761875858
Bq        -3.9196184869     3.8493009111    -0.1038539472
Bq        -3.9119345242     3.8002022763    -0.2975812834
Bq        -3.9234604682     3.8738502285    -0.0069902791
Bq        -3.9080925429     3.7756529590    -0.3944449514
Bq        -3.9273024495     3.8983995458     0.0898733890
Bq        -3.9042505616     3.7511036416    -0.4913086195
Bq        -3.9311444309     3.9229488632     0.1867370571
Bq        -3.9004085802     3.7265543242    -0.5881722876
Bq        -3.9349864122     3.9474981806     0.2836007252
Bq        -3.8965665989     3.7020050068    -0.6850359557
Bq        -3.9157765055     3.8247515937    -0.2007176153
Bq        -3.9186455326     3.9462407430    -0.1283839766
Bq        -3.9109615700     3.8971421083    -0.3221113128
Bq        -3.9224875140     3.9707900604    -0.0315203085
Bq        -3.9071195887     3.8725927909    -0.4189749809
Bq        -3.9263294953     3.9953393778     0.0653433596
Bq        -3.9032776073     3.8480434735    -0.5158386490
Bq        -3.9301714766     4.0198886952     0.1622070277
Bq        -3.8994356260     3.8234941562    -0.6127023171
Bq        -3.9340134580     4.0444380125     0.2590706958
Bq        -3.8955936447     3.7989448388    -0.7095659851
Bq        -3.9148035513     3.9216914257    -0.2252476447
Bq        -3.9176725784     4.0431805750    -0.1529140060
Bq        -3.9099886158     3.9940819402    -0.3466413422
Bq        -3.9215145597     4.0677298924    -0.0560503379
Bq        -3.9061466344     3.9695326228    -0.4435050103
Bq        -3.9253565411     4.0922792097     0.0408133301
Bq        -3.9023046531     3.9449833055    -0.5403686784
Bq        -3.9291985224     4.1168285271     0.1376769982
Bq        -3.8984626718     3.9204339881    -0.6372323465
Bq        -3.9330405037     4.1413778445     0.2345406663
Bq        -3.8946206904     3.8958846707    -0.7340960146
Bq        -3.9138305971     4.0186312576    -0.2497776741
Bq        -3.9166996242     4.1401204069    -0.1774440355
Bq        -3.9090156615     4.0910217722    -0.3711713716
Bq        -3.9205416055     4.1646697243    -0.0805803674
Bq        -3.9051736802     4.0664724548    -0.4680350397
Bq        -3.9243835869     4.1892190417     0.0162833007
Bq        -3.9013316989     4.0419231374    -0.5648987078
Bq        -3.9282255682     4.2137683590     0.1131469688
Bq        -3.8974897175     4.0173738200    -0.6617623759
Bq        -3.9320675495     4.2383176764     0.2100106369
Bq        -3.8936477362     3.9928245027    -0.7586260440
Bq        -3.9128576429     4.1155710895    -0.2743077035
Bq        -3.9157266700     4.2370602389    -0.2019740649
Bq        -3.9080427073     4.1879616041    -0.3957014011
Bq        -3.9195686513     4.2616095562    -0.1051103968
Bq        -3.9042007260     4.1634122867    -0.4925650692
Bq        -3.9234106326     4.2861588736    -0.0082467287
Bq        -3.9003587447     4.1388629694    -0.5894287372
Bq        -3.9272526140     4.3107081910     0.0886169394
Bq        -3.8965167633     4.1143136520    -0.6862924053
Bq        -3.9310945953     4.3352575084     0.1854806075
Bq        -3.8926747820     4.0897643346    -0.7831560734
Bq        -3.9118846886     4.2125109215    -0.2988377330
Bq        -3.9147537157     4.3340000708    -0.2265040943
Bq        -3.9070697531     4.2849014360    -0.4202314305
Bq        -3.9185956971     4.3585493882    -0.1296404262
Bq        -3.9032277718     4.2603521187    -0.5170950986
Bq        -3.9224376784     4.3830987055    -0.0327767581
Bq        -3.8993857904     4.2358028013    -0.6139587667
Bq        -3.9262796597     4.4076480229     0.0640869100
Bq        -3.8955438091     4.2112534839    -0.7108224348
Bq        -3.9301216411     4.4321973403     0.1609505780
Bq        -3.8917018278     4.1867041665    -0.8076861029
Bq        -3.9109117344     4.3094507534    -0.3233677624
Bq        -3.9137807615     4.4309399027    -0.2510341237
Bq        -3.9060967989     4.3818412680    -0.4447614599
Bq        -3.9176227428     4.4554892201    -0.1541704557
Bq        -3.9022548175     4.3572919506    -0.5416251280
Bq        -3.9214647242     4.4800385375    -0.0573067876
Bq        -3.8984128362     4.3327426332    -0.6384887961
Bq        -3.9253067055     4.5045878549     0.0395568805
Bq        -3.8945708549     4.3081933159    -0.7353524642
Bq        -3.9291486868     4.5291371722     0.1364205486
Bq        -3.8907288735     4.2836439985    -0.8322161323
Bq        -3.9099387802     4.4063905854    -0.3478977918
Bq        -3.8625070409    -0.4160516942     0.9794306115
Bq        -3.8548230783    -0.4651503290     0.7857032753
Bq        -3.8663490222    -0.3915023768     1.0762942796
Bq        -3.8509810969    -0.4896996464     0.6888396072
Bq        -3.8701910036    -0.3669530595     1.1731579477
Bq        -3.8471391156    -0.5142489637     0.5919759391
Bq        -3.8740329849    -0.3424037421     1.2700216158
Bq        -3.8432971343    -0.5387982811     0.4951122710
Bq        -3.8778749662    -0.3178544247     1.3668852838
Bq        -3.8394551529    -0.5633475985     0.3982486029
Bq        -3.8586650596    -0.4406010116     0.8825669434
Bq        -3.8615340867    -0.3191118623     0.9549005821
Bq        -3.8538501240    -0.3682104970     0.7611732459
Bq        -3.8653760680    -0.2945625449     1.0517642501
Bq        -3.8500081427    -0.3927598144     0.6643095778
Bq        -3.8692180493    -0.2700132275     1.1486279182
Bq        -3.8461661614    -0.4173091318     0.5674459097
Bq        -3.8730600307    -0.2454639102     1.2454915863
Bq        -3.8423241800    -0.4418584492     0.4705822416
Bq        -3.8769020120    -0.2209145928     1.3423552544
Bq        -3.8384821987    -0.4664077665     0.3737185735
Bq        -3.8576921054    -0.3436611797     0.8580369140
Bq        -3.8605611325    -0.2221720303     0.9303705526
Bq        -3.8528771698    -0.2712706651     0.7366432164
Bq        -3.8644031138    -0.1976227130     1.0272342207
Bq        -3.8490351885    -0.2958199825     0.6397795484
Bq        -3.8682450951    -0.1730733956     1.1240978888
Bq        -3.8451932071    -0.3203692998     0.5429158803
Bq        -3.8720870764    -0.1485240782     1.2209615569
Bq        -3.8413512258    -0.3449186172     0.4460522122
Bq        -3.8759290578    -0.1239747608     1.3178252250
Bq        -3.8375092445    -0.3694679346     0.3491885441
Bq        -3.8567191511    -0.2467213477     0.8335068845
Bq        -3.8595881782    -0.1252321984     0.9058405232
Bq        -3.8519042156    -0.1743308332     0.7121131870
Bq        -3.8634301596    -0.1006828810     1.0027041913
Bq        -3.8480622342    -0.1988801505     0.6152495189
Bq        -3.8672721409    -0.0761335637     1.0995678594

1
2
3
4
5
6
7
8
9
10
11
12
13
14
15
16
17
18
19
20
21
22
23
24
25
26
27
28
29
30
31
32
33
34
35
36
37
38
39
40
41
42
43
44
45
46
47
48
49
50
51
52
53
54
55
56
57
58
59
60
61
62
63
64
65
66
67
68
69
70
71
72
73
74
75
76
77
78
79
80
81
82
83
84
85
86
87
88
89
90
91
92
93
94
95
96
97
98
99
100
101
102
103
104
105
106
107
108
109
110
111
112
113
114
115
116
117
118
119
120
121
122
123
124
125
126
127
128
129
130
131
132
133
134
135
136
137
138
139
140
141
142
143
144
145
146
147
148
149
150
151
152
153
154
155
156
157
158
159
160
161
162
163
164
165
166
167
168
169
170
171
172
173
174
175
176
177
178
179
180
181
182
183
184
185
186
187
188
189
190
191
192
193
194
195
196
197
198
199
200
201
202
203
204
205
206
207
208
209
210
211
212
213
214
215
216
217
218
219
220
221
222
223
224
225
226
227
228
229
230
231
232
233
234
235
236

