%nproc=8
%mem=1000MB
# rb3lyp/6-311+g** NMR geom=connectivity

Title

0 1
C    -4.0500558   -0.5771862    0.8136712
H    -5.0263804   -1.0082727    1.0024760
C    -3.9381552    0.6617804    0.2400876
H    -4.8252424    1.2338890   -0.0111295
C    -2.6768410    1.2433246    0.0057578
C    -1.4974121    0.5051527    0.2848253
C    -1.6508332   -0.7338728    0.9404026
H    -0.7713646   -1.2730967    1.2633753
C    -2.8898548   -1.2624035    1.1994307
H    -2.9683706   -2.2124563    1.7152676
C    -2.5773185    2.5963696   -0.4192930
H    -3.4870728    3.1412239   -0.6474055
C    -1.3741895    3.2147896   -0.4364030
H    -1.2997315    4.2742019   -0.6578144
C    -0.1719488    2.4994090   -0.1734588
C    -0.2043917    1.1018437    0.0192689
C     1.0513491    3.2042560   -0.0676222
H     1.0427344    4.2819499   -0.1896997
C     2.1942091    2.5487446    0.2579577
H     3.1168527    3.0912848    0.4334727
C     2.2216473    1.1336562    0.2934990
C     1.0486931    0.3945528    0.0302412
C     3.4483363    0.4614633    0.5573939
H     4.3095794    1.0606054    0.8334846
C     3.5427346   -0.8855926    0.4749463
H     4.4731467   -1.3939704    0.7038822
C     2.4490052   -1.6474447   -0.0196319
C     1.2150704   -1.0057258   -0.3013573
C     0.2531113   -1.7434440   -1.0216591
H    -0.6541356   -1.2535051   -1.3462847
C     0.4494193   -3.0628597   -1.3413779
H    -0.3083162   -3.5944309   -1.9054060
C     1.6251726   -3.7207967   -0.9552541
H     1.7670048   -4.7687404   -1.1927019
C     2.6109872   -3.0144177   -0.3183050
H     3.5525612   -3.4902813   -0.0646367
Bq        -0.7013838149    -4.2605490288    -1.5203356254
Bq        -0.6216602873    -4.2073177266    -1.6958650748
Bq        -0.7412455787    -4.2871646799    -1.4325709007
Bq        -0.5817985235    -4.1807020755    -1.7836297996
Bq        -0.7811073425    -4.3137803310    -1.3448061760
Bq        -0.5419367598    -4.1540864244    -1.8713945243
Bq        -0.8209691063    -4.3403959821    -1.2570414513
Bq        -0.5020749960    -4.1274707733    -1.9591592490
Bq        -0.8608308701    -4.3670116332    -1.1692767266
Bq        -0.4622132322    -4.1008551222    -2.0469239737
Bq        -0.6615220511    -4.2339333777    -1.6081003501
Bq        -0.7123902883    -4.1641560461    -1.4961023750
Bq        -0.6326667607    -4.1109247439    -1.6716318244
Bq        -0.7522520521    -4.1907716972    -1.4083376502
Bq        -0.5928049969    -4.0843090928    -1.7593965491
Bq        -0.7921138159    -4.2173873483    -1.3205729255
Bq        -0.5529432331    -4.0576934417    -1.8471612738
Bq        -0.8319755796    -4.2440029994    -1.2328082008
Bq        -0.5130814693    -4.0310777905    -1.9349259985
Bq        -0.8718373434    -4.2706186505    -1.1450434761
Bq        -0.4732197056    -4.0044621394    -2.0226907232
Bq        -0.6725285245    -4.1375403950    -1.5838670997
Bq        -0.7233967616    -4.0677630634    -1.4718691245
Bq        -0.6436732341    -4.0145317612    -1.6473985739
Bq        -0.7632585254    -4.0943787145    -1.3841043998
Bq        -0.6038114703    -3.9879161100    -1.7351632986
Bq        -0.8031202892    -4.1209943656    -1.2963396751
Bq        -0.5639497065    -3.9613004589    -1.8229280234
Bq        -0.8429820530    -4.1476100167    -1.2085749504
Bq        -0.5240879427    -3.9346848078    -1.9106927481
Bq        -0.8828438168    -4.1742256678    -1.1208102257
Bq        -0.4842261789    -3.9080691567    -1.9984574728
Bq        -0.6835349979    -4.0411474123    -1.5596338492
Bq        -0.7344032350    -3.9713700807    -1.4476358740
Bq        -0.6546797074    -3.9181387784    -1.6231653235
Bq        -0.7742649988    -3.9979857318    -1.3598711493
Bq        -0.6148179437    -3.8915231273    -1.7109300482
Bq        -0.8141267626    -4.0246013829    -1.2721064246
Bq        -0.5749561799    -3.8649074762    -1.7986947729
Bq        -0.8539885264    -4.0512170340    -1.1843416999
Bq        -0.5350944161    -3.8382918251    -1.8864594976
Bq        -0.8938502902    -4.0778326851    -1.0965769752
Bq        -0.4952326523    -3.8116761740    -1.9742242223
Bq        -0.6945414712    -3.9447544296    -1.5354005988
Bq        -0.7454097084    -3.8749770979    -1.4234026236
Bq        -0.6656861808    -3.8217457957    -1.5989320730
Bq        -0.7852714722    -3.9015927491    -1.3356378989
Bq        -0.6258244170    -3.7951301446    -1.6866967977
Bq        -0.8251332360    -3.9282084002    -1.2478731742
Bq        -0.5859626532    -3.7685144935    -1.7744615224
Bq        -0.8649949998    -3.9548240513    -1.1601084494
Bq        -0.5461008895    -3.7418988424    -1.8622262472
Bq        -0.9048567635    -3.9814397024    -1.0723437247
Bq        -0.5062391257    -3.7152831913    -1.9499909719
Bq        -0.7055479446    -3.8483614468    -1.5111673483
Bq        -0.7564161818    -3.7785841152    -1.3991693731
Bq        -0.6766926542    -3.7253528130    -1.5746988226
Bq        -0.7962779456    -3.8051997663    -1.3114046484
Bq        -0.6368308904    -3.6987371619    -1.6624635473
Bq        -0.8361397093    -3.8318154174    -1.2236399237
Bq        -0.5969691266    -3.6721215108    -1.7502282720
Bq        -0.8760014731    -3.8584310686    -1.1358751990
Bq        -0.5571073628    -3.6455058597    -1.8379929967
Bq        -0.9158632369    -3.8850467197    -1.0481104743
Bq        -0.5172455990    -3.6188902086    -1.9257577214
Bq        -0.7165544180    -3.7519684641    -1.4869340978
Bq        -0.7674226551    -3.6821911325    -1.3749361227
Bq        -0.6876991276    -3.6289598303    -1.5504655721
Bq        -0.8072844189    -3.7088067836    -1.2871713980
Bq        -0.6478373638    -3.6023441792    -1.6382302968
Bq        -0.8471461827    -3.7354224347    -1.1994066732
Bq        -0.6079756000    -3.5757285281    -1.7259950215
Bq        -0.8870079465    -3.7620380858    -1.1116419485
Bq        -0.5681138362    -3.5491128770    -1.8137597462
Bq        -0.9268697103    -3.7886537369    -1.0238772238
Bq        -0.5282520724    -3.5224972259    -1.9015244709
Bq        -0.7275608913    -3.6555754814    -1.4627008474
Bq        -0.7784291285    -3.5857981498    -1.3507028722
Bq        -0.6987056009    -3.5325668476    -1.5262323216
Bq        -0.8182908923    -3.6124138009    -1.2629381475
Bq        -0.6588438371    -3.5059511965    -1.6139970464
Bq        -0.8581526561    -3.6390294520    -1.1751734228
Bq        -0.6189820734    -3.4793355454    -1.7017617711
Bq        -0.8980144199    -3.6656451031    -1.0874086981
Bq        -0.5791203096    -3.4527198943    -1.7895264958
Bq        -0.9378761837    -3.6922607542    -0.9996439734
Bq        -0.5392585458    -3.4261042432    -1.8772912205
Bq        -0.7385673647    -3.5591824987    -1.4384675969
Bq        -0.7894356019    -3.4894051671    -1.3264696218
Bq        -0.7097120743    -3.4361738649    -1.5019990712
Bq        -0.8292973657    -3.5160208182    -1.2387048970
Bq        -0.6698503105    -3.4095582138    -1.5897637959
Bq        -0.8691591295    -3.5426364693    -1.1509401723
Bq        -0.6299885467    -3.3829425627    -1.6775285206
Bq        -0.9090208932    -3.5692521204    -1.0631754476
Bq        -0.5901267829    -3.3563269116    -1.7652932453
Bq        -0.9488826570    -3.5958677715    -0.9754107229
Bq        -0.5502650192    -3.3297112605    -1.8530579700
Bq        -0.7495738381    -3.4627895160    -1.4142343465
Bq        -0.8004420753    -3.3930121844    -1.3022363713
Bq        -0.7207185477    -3.3397808822    -1.4777658207
Bq        -0.8403038390    -3.4196278355    -1.2144716466
Bq        -0.6808567839    -3.3131652311    -1.5655305454
Bq        -0.8801656028    -3.4462434866    -1.1267069219
Bq        -0.6409950201    -3.2865495800    -1.6532952701
Bq        -0.9200273666    -3.4728591377    -1.0389421972
Bq        -0.6011332563    -3.2599339288    -1.7410599949
Bq        -0.9598891304    -3.4994747888    -0.9511774724
Bq        -0.5612714925    -3.2333182777    -1.8288247196
Bq        -0.7605803115    -3.3663965333    -1.3900010960
Bq        -0.8114485486    -3.2966192017    -1.2780031208
Bq        -0.7317250211    -3.2433878995    -1.4535325703
Bq        -0.8513103124    -3.3232348528    -1.1902383961
Bq        -0.6918632573    -3.2167722484    -1.5412972950
Bq        -0.8911720762    -3.3498505039    -1.1024736714
Bq        -0.6520014935    -3.1901565972    -1.6290620197
Bq        -0.9310338400    -3.3764661550    -1.0147089467
Bq        -0.6121397297    -3.1635409461    -1.7168267444
Bq        -0.9708956038    -3.4030818061    -0.9269442220
Bq        -0.5722779659    -3.1369252950    -1.8045914691
Bq        -0.7715867848    -3.2700035506    -1.3657678456
Bq        -0.8224550220    -3.2002262190    -1.2537698704
Bq        -0.7427314944    -3.1469949167    -1.4292993198
Bq        -0.8623167858    -3.2268418701    -1.1660051457
Bq        -0.7028697306    -3.1203792656    -1.5170640445
Bq        -0.9021785496    -3.2534575212    -1.0782404210
Bq        -0.6630079668    -3.0937636145    -1.6048287692
Bq        -0.9420403134    -3.2800731723    -0.9904756962
Bq        -0.6231462031    -3.0671479634    -1.6925934939
Bq        -0.9819020771    -3.3066888234    -0.9027109715
Bq        -0.5832844393    -3.0405323123    -1.7803582187
Bq        -0.7825932582    -3.1736105679    -1.3415345951
Bq        -0.8334614954    -3.1038332362    -1.2295366199
Bq        -0.7537379678    -3.0506019340    -1.4050660693
Bq        -0.8733232592    -3.1304488874    -1.1417718952
Bq        -0.7138762040    -3.0239862829    -1.4928307941
Bq        -0.9131850229    -3.1570645385    -1.0540071705
Bq        -0.6740144402    -2.9973706318    -1.5805955188
Bq        -0.9530467867    -3.1836801896    -0.9662424458
Bq        -0.6341526764    -2.9707549807    -1.6683602435
Bq        -0.9929085505    -3.2102958407    -0.8784777211
Bq        -0.5942909126    -2.9441393296    -1.7561249682
Bq        -0.7935997316    -3.0772175851    -1.3173013446
Bq        -0.8444679687    -3.0074402535    -1.2053033695
Bq        -0.7647444412    -2.9542089513    -1.3808328189
Bq        -0.8843297325    -3.0340559046    -1.1175386448
Bq        -0.7248826774    -2.9275933002    -1.4685975436
Bq        -0.9241914963    -3.0606715558    -1.0297739200
Bq        -0.6850209136    -2.9009776491    -1.5563622683
Bq        -0.9640532601    -3.0872872069    -0.9420091953
Bq        -0.6451591498    -2.8743619980    -1.6441269930
Bq        -1.0039150239    -3.1139028580    -0.8542444706
Bq        -0.6052973860    -2.8477463469    -1.7318917177
Bq        -0.8046062050    -2.9808246024    -1.2930680942
Bq        -0.8554744421    -2.9110472708    -1.1810701190
Bq        -0.7757509145    -2.8578159686    -1.3565995684
Bq        -0.8953362059    -2.9376629219    -1.0933053943
Bq        -0.7358891508    -2.8312003175    -1.4443642931
Bq        -0.9351979697    -2.9642785730    -1.0055406696
Bq        -0.6960273870    -2.8045846664    -1.5321290179
Bq        -0.9750597335    -2.9908942241    -0.9177759449
Bq        -0.6561656232    -2.7779690153    -1.6198937426
Bq        -1.0149214973    -3.0175098753    -0.8300112202
Bq        -0.6163038594    -2.7513533642    -1.7076584673
Bq        -0.8156126783    -2.8844316197    -1.2688348437
Bq        -0.8664809155    -2.8146542881    -1.1568368685
Bq        -0.7867573879    -2.7614229859    -1.3323663180
Bq        -0.9063426793    -2.8412699392    -1.0690721438
Bq        -0.7468956241    -2.7348073348    -1.4201310427
Bq        -0.9462044431    -2.8678855903    -0.9813074191
Bq        -0.7070338603    -2.7081916837    -1.5078957674
Bq        -0.9860662068    -2.8945012414    -0.8935426944
Bq        -0.6671720965    -2.6815760326    -1.5956604921
Bq        -1.0259279706    -2.9211168925    -0.8057779697
Bq        -0.6273103328    -2.6549603815    -1.6834252168
Bq        -0.8266191517    -2.7880386370    -1.2446015933
Bq        -0.8774873889    -2.7182613054    -1.1326036181
Bq        -0.7977638613    -2.6650300032    -1.3081330675
Bq        -0.9173491526    -2.7448769565    -1.0448388934
Bq        -0.7579020975    -2.6384143521    -1.3958977922
Bq        -0.9572109164    -2.7714926076    -0.9570741687
Bq        -0.7180403337    -2.6117987010    -1.4836625169
Bq        -0.9970726802    -2.7981082587    -0.8693094440
Bq        -0.6781785699    -2.5851830499    -1.5714272417
Bq        -1.0369344440    -2.8247239098    -0.7815447192
Bq        -0.6383168061    -2.5585673988    -1.6591919664
Bq        -0.8376256251    -2.6916456543    -1.2203683428
Bq        -0.8884938622    -2.6218683227    -1.1083703676
Bq        -0.8087703347    -2.5686370205    -1.2838998171
Bq        -0.9283556260    -2.6484839738    -1.0206056429
Bq        -0.7689085709    -2.5420213694    -1.3716645418
Bq        -0.9682173898    -2.6750996249    -0.9328409182
Bq        -0.7290468071    -2.5154057183    -1.4594292665
Bq        -1.0080791536    -2.7017152760    -0.8450761935
Bq        -0.6891850433    -2.4887900672    -1.5471939912
Bq        -1.0479409174    -2.7283309271    -0.7573114688
Bq        -0.6493232795    -2.4621744160    -1.6349587159
Bq        -0.8486320984    -2.5952526716    -1.1961350923
Bq        -0.8995003356    -2.5254753400    -1.0841371172
Bq        -0.8197768080    -2.4722440378    -1.2596665666

1
2
3
4
5
6
7
8
9
10
11
12
13
14
15
16
17
18
19
20
21
22
23
24
25
26
27
28
29
30
31
32
33
34
35
36
37
38
39
40
41
42
43
44
45
46
47
48
49
50
51
52
53
54
55
56
57
58
59
60
61
62
63
64
65
66
67
68
69
70
71
72
73
74
75
76
77
78
79
80
81
82
83
84
85
86
87
88
89
90
91
92
93
94
95
96
97
98
99
100
101
102
103
104
105
106
107
108
109
110
111
112
113
114
115
116
117
118
119
120
121
122
123
124
125
126
127
128
129
130
131
132
133
134
135
136
137
138
139
140
141
142
143
144
145
146
147
148
149
150
151
152
153
154
155
156
157
158
159
160
161
162
163
164
165
166
167
168
169
170
171
172
173
174
175
176
177
178
179
180
181
182
183
184
185
186
187
188
189
190
191
192
193
194
195
196
197
198
199
200
201
202
203
204
205
206
207
208
209
210
211
212
213
214
215
216
217
218
219
220
221
222
223
224
225
226
227
228
229
230
231
232
233
234
235
236

