%nproc=8
%mem=1000MB
# rb3lyp/6-311+g** NMR geom=connectivity

Title

0 1
C    -4.0500558   -0.5771862    0.8136712
H    -5.0263804   -1.0082727    1.0024760
C    -3.9381552    0.6617804    0.2400876
H    -4.8252424    1.2338890   -0.0111295
C    -2.6768410    1.2433246    0.0057578
C    -1.4974121    0.5051527    0.2848253
C    -1.6508332   -0.7338728    0.9404026
H    -0.7713646   -1.2730967    1.2633753
C    -2.8898548   -1.2624035    1.1994307
H    -2.9683706   -2.2124563    1.7152676
C    -2.5773185    2.5963696   -0.4192930
H    -3.4870728    3.1412239   -0.6474055
C    -1.3741895    3.2147896   -0.4364030
H    -1.2997315    4.2742019   -0.6578144
C    -0.1719488    2.4994090   -0.1734588
C    -0.2043917    1.1018437    0.0192689
C     1.0513491    3.2042560   -0.0676222
H     1.0427344    4.2819499   -0.1896997
C     2.1942091    2.5487446    0.2579577
H     3.1168527    3.0912848    0.4334727
C     2.2216473    1.1336562    0.2934990
C     1.0486931    0.3945528    0.0302412
C     3.4483363    0.4614633    0.5573939
H     4.3095794    1.0606054    0.8334846
C     3.5427346   -0.8855926    0.4749463
H     4.4731467   -1.3939704    0.7038822
C     2.4490052   -1.6474447   -0.0196319
C     1.2150704   -1.0057258   -0.3013573
C     0.2531113   -1.7434440   -1.0216591
H    -0.6541356   -1.2535051   -1.3462847
C     0.4494193   -3.0628597   -1.3413779
H    -0.3083162   -3.5944309   -1.9054060
C     1.6251726   -3.7207967   -0.9552541
H     1.7670048   -4.7687404   -1.1927019
C     2.6109872   -3.0144177   -0.3183050
H     3.5525612   -3.4902813   -0.0646367
Bq         3.6457808779     0.7310342212     1.4079020624
Bq         3.7484963352     0.7879448573     1.0255269661
Bq         3.6201020136     0.7168065622     1.5034958365
Bq         3.7741751995     0.8021725163     0.9299331920
Bq         3.5944231493     0.7025789031     1.5990896106
Bq         3.7998540639     0.8164001754     0.8343394179
Bq         3.5687442850     0.6883512441     1.6946833847
Bq         3.8255329282     0.8306278344     0.7387456438
Bq         3.6971386066     0.7594895393     1.2167145142
Bq         3.6677686917     0.8442445743     1.3260488279
Bq         3.7191264204     0.8726998923     1.1348612797
Bq         3.6420898274     0.8300169152     1.4216426020
Bq         3.7448052847     0.8869275513     1.0392675056
Bq         3.6164109631     0.8157892562     1.5172363761
Bq         3.7704841490     0.9011552104     0.9436737315
Bq         3.5907320988     0.8015615972     1.6128301502
Bq         3.7961630133     0.9153828694     0.8480799574
Bq         3.5650532344     0.7873339381     1.7084239243
Bq         3.8218418777     0.9296105284     0.7524861833
Bq         3.6934475560     0.8584722333     1.2304550538
Bq         3.6640776412     0.9432272683     1.3397893675
Bq         3.7154353698     0.9716825864     1.1486018193
Bq         3.6383987769     0.9289996093     1.4353831416
Bq         3.7411142342     0.9859102454     1.0530080452
Bq         3.6127199125     0.9147719502     1.5309769156
Bq         3.7667930985     1.0001379044     0.9574142711
Bq         3.5870410482     0.9005442912     1.6265706897
Bq         3.7924719628     1.0143655634     0.8618204970
Bq         3.5613621839     0.8863166322     1.7221644638
Bq         3.8181508271     1.0285932225     0.7662267229
Bq         3.6897565055     0.9574549273     1.2441955934
Bq         3.6603865906     1.0422099623     1.3535299070
Bq         3.7117443193     1.0706652804     1.1623423588
Bq         3.6347077263     1.0279823033     1.4491236811
Bq         3.7374231836     1.0848929394     1.0667485847
Bq         3.6090288620     1.0137546443     1.5447174552
Bq         3.7631020479     1.0991205984     0.9711548106
Bq         3.5833499977     0.9995269852     1.6403112293
Bq         3.7887809123     1.1133482575     0.8755610365
Bq         3.5576711334     0.9852993262     1.7359050034
Bq         3.8144597766     1.1275759165     0.7799672624
Bq         3.6860654550     1.0564376214     1.2579361329
Bq         3.6566955401     1.1411926564     1.3672704466
Bq         3.7080532688     1.1696479744     1.1760828984
Bq         3.6310166758     1.1269649973     1.4628642207
Bq         3.7337321331     1.1838756335     1.0804891243
Bq         3.6053378115     1.1127373383     1.5584579948
Bq         3.7594109974     1.1981032925     0.9848953502
Bq         3.5796589471     1.0985096793     1.6540517689
Bq         3.7850898617     1.2123309515     0.8893015761
Bq         3.5539800828     1.0842820203     1.7496455430
Bq         3.8107687260     1.2265586105     0.7937078020
Bq         3.6823744044     1.1554203154     1.2716766725
Bq         3.6530044896     1.2401753504     1.3810109861
Bq         3.7043622182     1.2686306685     1.1898234379
Bq         3.6273256253     1.2259476914     1.4766047602
Bq         3.7300410825     1.2828583275     1.0942296639
Bq         3.6016467609     1.2117200323     1.5721985343
Bq         3.7557199469     1.2970859865     0.9986358898
Bq         3.5759678966     1.1974923733     1.6677923084
Bq         3.7813988112     1.3113136455     0.9030421157
Bq         3.5502890323     1.1832647143     1.7633860825
Bq         3.8070776755     1.3255413046     0.8074483416
Bq         3.6786833539     1.2544030094     1.2854172120
Bq         3.6493134390     1.3391580444     1.3947515257
Bq         3.7006711677     1.3676133625     1.2035639775
Bq         3.6236345747     1.3249303854     1.4903452998
Bq         3.7263500320     1.3818410215     1.1079702034
Bq         3.5979557104     1.3107027264     1.5859390739
Bq         3.7520288963     1.3960686806     1.0123764293
Bq         3.5722768461     1.2964750674     1.6815328480
Bq         3.7777077607     1.4102963396     0.9167826552
Bq         3.5465979818     1.2822474083     1.7771266221
Bq         3.8033866250     1.4245239986     0.8211888811
Bq         3.6749923034     1.3533857035     1.2991577516
Bq         3.6456223885     1.4381407385     1.4084920653
Bq         3.6969801172     1.4665960565     1.2173045171
Bq         3.6199435242     1.4239130794     1.5040858393
Bq         3.7226589815     1.4808237156     1.1217107430
Bq         3.5942646599     1.4096854204     1.5996796134
Bq         3.7483378458     1.4950513746     1.0261169689
Bq         3.5685857955     1.3954577614     1.6952733875
Bq         3.7740167101     1.5092790336     0.9305231948
Bq         3.5429069312     1.3812301024     1.7908671616
Bq         3.7996955744     1.5235066926     0.8349294207
Bq         3.6713012528     1.4523683975     1.3128982912
Bq         3.6419313380     1.5371234325     1.4222326048
Bq         3.6932890666     1.5655787506     1.2310450566
Bq         3.6162524736     1.5228957735     1.5178263789
Bq         3.7189679309     1.5798064096     1.1354512825
Bq         3.5905736093     1.5086681145     1.6134201530
Bq         3.7446467953     1.5940340686     1.0398575084
Bq         3.5648947450     1.4944404554     1.7090139271
Bq         3.7703256596     1.6082617277     0.9442637343
Bq         3.5392158807     1.4802127964     1.8046077012
Bq         3.7960045239     1.6224893867     0.8486699602
Bq         3.6676102023     1.5513510915     1.3266388307
Bq         3.6382402874     1.6361061265     1.4359731444
Bq         3.6895980161     1.6645614446     1.2447855962
Bq         3.6125614231     1.6218784675     1.5315669185
Bq         3.7152768804     1.6787891036     1.1491918221
Bq         3.5868825588     1.6076508085     1.6271606926
Bq         3.7409557447     1.6930167627     1.0535980480
Bq         3.5612036945     1.5934231495     1.7227544667
Bq         3.7666346090     1.7072444217     0.9580042739
Bq         3.5355248301     1.5791954904     1.8183482407
Bq         3.7923134734     1.7214720807     0.8624104998
Bq         3.6639191518     1.6503337856     1.3403793703
Bq         3.6345492369     1.7350888206     1.4497136839
Bq         3.6859069655     1.7635441386     1.2585261357
Bq         3.6088703726     1.7208611616     1.5453074580
Bq         3.7115858299     1.7777717977     1.1629323616
Bq         3.5831915083     1.7066335025     1.6409012321
Bq         3.7372646942     1.7919994567     1.0673385875
Bq         3.5575126439     1.6924058435     1.7364950062
Bq         3.7629435585     1.8062271157     0.9717448135
Bq         3.5318337796     1.6781781845     1.8320887803
Bq         3.7886224228     1.8204547748     0.8761510394
Bq         3.6602281012     1.7493164796     1.3541199098
Bq         3.6308581864     1.8340715146     1.4634542235
Bq         3.6822159150     1.8625268327     1.2722666753
Bq         3.6051793220     1.8198438556     1.5590479976
Bq         3.7078947793     1.8767544917     1.1766729012
Bq         3.5795004577     1.8056161966     1.6546417717
Bq         3.7335736437     1.8909821507     1.0810791271
Bq         3.5538215934     1.7913885375     1.7502355458
Bq         3.7592525080     1.9052098098     0.9854853530
Bq         3.5281427291     1.7771608785     1.8458293199
Bq         3.7849313723     1.9194374688     0.8898915789
Bq         3.6565370507     1.8482991736     1.3678604494
Bq         3.6271671358     1.9330542087     1.4771947630
Bq         3.6785248645     1.9615095267     1.2860072149
Bq         3.6014882715     1.9188265496     1.5727885371
Bq         3.7042037288     1.9757371857     1.1904134408
Bq         3.5758094072     1.9045988906     1.6683823112
Bq         3.7298825931     1.9899648448     1.0948196667
Bq         3.5501305429     1.8903712316     1.7639760853
Bq         3.7555614574     2.0041925038     0.9992258926
Bq         3.5244516785     1.8761435725     1.8595698594
Bq         3.7812403218     2.0184201628     0.9036321185
Bq         3.6528460002     1.9472818677     1.3816009890
Bq         3.6234760853     2.0320369027     1.4909353026
Bq         3.6748338139     2.0604922207     1.2997477544
Bq         3.5977972210     2.0178092437     1.5865290767
Bq         3.7005126783     2.0747198798     1.2041539803
Bq         3.5721183566     2.0035815846     1.6821228508
Bq         3.7261915426     2.0889475388     1.1085602062
Bq         3.5464394923     1.9893539256     1.7777166249
Bq         3.7518704069     2.1031751978     1.0129664321
Bq         3.5207606280     1.9751262666     1.8733103990
Bq         3.7775492712     2.1174028569     0.9173726580
Bq         3.6491549496     2.0462645617     1.3953415285
Bq         3.6197850348     2.1310195967     1.5046758422
Bq         3.6711427634     2.1594749148     1.3134882940
Bq         3.5941061704     2.1167919377     1.6002696163
Bq         3.6968216277     2.1737025738     1.2178945199
Bq         3.5684273061     2.1025642787     1.6958633904
Bq         3.7225004920     2.1879302328     1.1223007458
Bq         3.5427484418     2.0883366196     1.7914571644
Bq         3.7481793564     2.2021578919     1.0267069717
Bq         3.5170695775     2.0741089606     1.8870509385
Bq         3.7738582207     2.2163855509     0.9311131976
Bq         3.6454638991     2.1452472558     1.4090820681
Bq         3.9009138116    -2.8181151051     0.8435916460
Bq         3.9522715402    -2.7896597870     0.6524040978
Bq         3.8752349473    -2.8323427641     0.9391854201
Bq         3.9779504045    -2.7754321280     0.5568103237
Bq         3.8495560829    -2.8465704231     1.0347791942
Bq         4.0036292689    -2.7612044690     0.4612165496
Bq         3.8238772186    -2.8607980821     1.1303729683
Bq         4.0293081332    -2.7469768099     0.3656227755
Bq         3.7981983543    -2.8750257412     1.2259667424
Bq         4.0549869975    -2.7327491509     0.2700290014
Bq         3.9265926759    -2.8038874460     0.7479978719
Bq         3.8972227610    -2.7191324110     0.8573321856
Bq         3.9485804897    -2.6906770930     0.6661446374
Bq         3.8715438967    -2.7333600701     0.9529259597
Bq         3.9742593540    -2.6764494339     0.5705508633
Bq         3.8458650324    -2.7475877291     1.0485197338
Bq         3.9999382183    -2.6622217749     0.4749570892
Bq         3.8201861681    -2.7618153881     1.1441135079
Bq         4.0256170827    -2.6479941159     0.3793633151
Bq         3.7945073037    -2.7760430471     1.2397072819
Bq         4.0512959470    -2.6337664569     0.2837695410
Bq         3.9229016254    -2.7049047520     0.7617384115
Bq         3.8935317105    -2.6201497170     0.8710727251
Bq         3.9448894391    -2.5916943989     0.6798851769
Bq         3.8678528462    -2.6343773760     0.9666664992
Bq         3.9705683035    -2.5774667399     0.5842914028
Bq         3.8421739819    -2.6486050350     1.0622602733
Bq         3.9962471678    -2.5632390809     0.4886976287
Bq         3.8164951175    -2.6628326941     1.1578540474
Bq         4.0219260321    -2.5490114219     0.3931038547
Bq         3.7908162532    -2.6770603531     1.2534478215
Bq         4.0476048964    -2.5347837628     0.2975100806
Bq         3.9192105748    -2.6059220580     0.7754789510
Bq         3.8898406600    -2.5211670230     0.8848132647
Bq         3.9411983886    -2.4927117049     0.6936257165
Bq         3.8641617956    -2.5353946820     0.9804070388
Bq         3.9668772529    -2.4784840459     0.5980319424

1
2
3
4
5
6
7
8
9
10
11
12
13
14
15
16
17
18
19
20
21
22
23
24
25
26
27
28
29
30
31
32
33
34
35
36
37
38
39
40
41
42
43
44
45
46
47
48
49
50
51
52
53
54
55
56
57
58
59
60
61
62
63
64
65
66
67
68
69
70
71
72
73
74
75
76
77
78
79
80
81
82
83
84
85
86
87
88
89
90
91
92
93
94
95
96
97
98
99
100
101
102
103
104
105
106
107
108
109
110
111
112
113
114
115
116
117
118
119
120
121
122
123
124
125
126
127
128
129
130
131
132
133
134
135
136
137
138
139
140
141
142
143
144
145
146
147
148
149
150
151
152
153
154
155
156
157
158
159
160
161
162
163
164
165
166
167
168
169
170
171
172
173
174
175
176
177
178
179
180
181
182
183
184
185
186
187
188
189
190
191
192
193
194
195
196
197
198
199
200
201
202
203
204
205
206
207
208
209
210
211
212
213
214
215
216
217
218
219
220
221
222
223
224
225
226
227
228
229
230
231
232
233
234
235
236

