%nproc=8
%mem=1000MB
# rb3lyp/6-311+g** NMR geom=connectivity

Title

0 1
C    -4.0500558   -0.5771862    0.8136712
H    -5.0263804   -1.0082727    1.0024760
C    -3.9381552    0.6617804    0.2400876
H    -4.8252424    1.2338890   -0.0111295
C    -2.6768410    1.2433246    0.0057578
C    -1.4974121    0.5051527    0.2848253
C    -1.6508332   -0.7338728    0.9404026
H    -0.7713646   -1.2730967    1.2633753
C    -2.8898548   -1.2624035    1.1994307
H    -2.9683706   -2.2124563    1.7152676
C    -2.5773185    2.5963696   -0.4192930
H    -3.4870728    3.1412239   -0.6474055
C    -1.3741895    3.2147896   -0.4364030
H    -1.2997315    4.2742019   -0.6578144
C    -0.1719488    2.4994090   -0.1734588
C    -0.2043917    1.1018437    0.0192689
C     1.0513491    3.2042560   -0.0676222
H     1.0427344    4.2819499   -0.1896997
C     2.1942091    2.5487446    0.2579577
H     3.1168527    3.0912848    0.4334727
C     2.2216473    1.1336562    0.2934990
C     1.0486931    0.3945528    0.0302412
C     3.4483363    0.4614633    0.5573939
H     4.3095794    1.0606054    0.8334846
C     3.5427346   -0.8855926    0.4749463
H     4.4731467   -1.3939704    0.7038822
C     2.4490052   -1.6474447   -0.0196319
C     1.2150704   -1.0057258   -0.3013573
C     0.2531113   -1.7434440   -1.0216591
H    -0.6541356   -1.2535051   -1.3462847
C     0.4494193   -3.0628597   -1.3413779
H    -0.3083162   -3.5944309   -1.9054060
C     1.6251726   -3.7207967   -0.9552541
H     1.7670048   -4.7687404   -1.1927019
C     2.6109872   -3.0144177   -0.3183050
H     3.5525612   -3.4902813   -0.0646367
Bq        -0.7000818798     2.1281218180     0.0954811946
Bq        -0.7724616450     2.1526892435     0.5896042675
Bq        -0.6856059267     2.1232083330    -0.0033434200
Bq        -0.7869375981     2.1576027285     0.6884288821
Bq        -0.6711299737     2.1182948479    -0.1021680346
Bq        -0.8014135511     2.1625162136     0.7872534967
Bq        -0.6566540207     2.1133813628    -0.2009926492
Bq        -0.7290337859     2.1379487882     0.2931304238
Bq        -0.7427976050     2.2427414887     0.3870934336
Bq        -0.7138456989     2.2329145185     0.1894442044
Bq        -0.7572735580     2.2476549738     0.4859180482
Bq        -0.6993697458     2.2280010334     0.0906195898
Bq        -0.7717495111     2.2525684588     0.5847426627
Bq        -0.6848937928     2.2230875483    -0.0082050248
Bq        -0.7862254641     2.2574819439     0.6835672773
Bq        -0.6704178398     2.2181740633    -0.1070296394
Bq        -0.8007014172     2.2623954290     0.7823918919
Bq        -0.6559418867     2.2132605782    -0.2058542539
Bq        -0.7283216519     2.2378280036     0.2882688190
Bq        -0.7420854710     2.3426207040     0.3822318288
Bq        -0.7131335650     2.3327937339     0.1845825996
Bq        -0.7565614241     2.3475341891     0.4810564434
Bq        -0.6986576119     2.3278802488     0.0857579851
Bq        -0.7710373771     2.3524476742     0.5798810580
Bq        -0.6841816589     2.3229667637    -0.0130666295
Bq        -0.7855133302     2.3573611593     0.6787056726
Bq        -0.6697057058     2.3180532786    -0.1118912441
Bq        -0.7999892832     2.3622746444     0.7775302871
Bq        -0.6552297528     2.3131397936    -0.2107158587
Bq        -0.7276095180     2.3377072190     0.2834072142
Bq        -0.7413733371     2.4424999194     0.3773702240
Bq        -0.7124214310     2.4326729493     0.1797209949
Bq        -0.7558492901     2.4474134045     0.4761948386
Bq        -0.6979454780     2.4277594642     0.0808963803
Bq        -0.7703252432     2.4523268896     0.5750194532
Bq        -0.6834695249     2.4228459791    -0.0179282343
Bq        -0.7848011962     2.4572403747     0.6738440678
Bq        -0.6689935719     2.4179324940    -0.1167528489
Bq        -0.7992771493     2.4621538598     0.7726686824
Bq        -0.6545176188     2.4130190089    -0.2155774635
Bq        -0.7268973841     2.4375864343     0.2785456095
Bq        -0.7406612032     2.5423791348     0.3725086193
Bq        -0.7117092971     2.5325521646     0.1748593901
Bq        -0.7551371562     2.5472926199     0.4713332339
Bq        -0.6972333440     2.5276386796     0.0760347755
Bq        -0.7696131092     2.5522061050     0.5701578484
Bq        -0.6827573910     2.5227251945    -0.0227898391
Bq        -0.7840890623     2.5571195900     0.6689824630
Bq        -0.6682814379     2.5178117094    -0.1216144537
Bq        -0.7985650153     2.5620330751     0.7678070776
Bq        -0.6538054849     2.5128982243    -0.2204390682
Bq        -0.7261852501     2.5374656497     0.2736840047
Bq        -0.7399490692     2.6422583502     0.3676470145
Bq        -0.7109971631     2.6324313800     0.1699977853
Bq        -0.7544250223     2.6471718353     0.4664716291
Bq        -0.6965212101     2.6275178949     0.0711731708
Bq        -0.7689009753     2.6520853203     0.5652962437
Bq        -0.6820452570     2.6226044098    -0.0276514438
Bq        -0.7833769283     2.6569988054     0.6641208583
Bq        -0.6675693040     2.6176909248    -0.1264760584
Bq        -0.7978528814     2.6619122905     0.7629454728
Bq        -0.6530933509     2.6127774397    -0.2253006730
Bq        -0.7254731162     2.6373448651     0.2688223999
Bq        -0.7392369353     2.7421375656     0.3627854097
Bq        -0.7102850292     2.7323105954     0.1651361806
Bq        -0.7537128883     2.7470510506     0.4616100243
Bq        -0.6958090761     2.7273971103     0.0663115660
Bq        -0.7681888414     2.7519645357     0.5604346389
Bq        -0.6813331231     2.7224836252    -0.0325130486
Bq        -0.7826647944     2.7568780208     0.6592592535
Bq        -0.6668571701     2.7175701401    -0.1313376632
Bq        -0.7971407475     2.7617915059     0.7580838681
Bq        -0.6523812170     2.7126566551    -0.2301622778
Bq        -0.7247609822     2.7372240805     0.2639607952
Bq        -0.7385248013     2.8420167809     0.3579238050
Bq        -0.7095728952     2.8321898108     0.1602745758
Bq        -0.7530007544     2.8469302660     0.4567484196
Bq        -0.6950969422     2.8272763257     0.0614499612
Bq        -0.7674767074     2.8518437511     0.5555730341
Bq        -0.6806209892     2.8223628406    -0.0373746534
Bq        -0.7819526605     2.8567572362     0.6543976487
Bq        -0.6661450361     2.8174493555    -0.1361992680
Bq        -0.7964286135     2.8616707213     0.7532222633
Bq        -0.6516690831     2.8125358704    -0.2350238825
Bq        -0.7240488483     2.8371032959     0.2590991904
Bq        -0.7378126674     2.9418959963     0.3530622002
Bq        -0.7088607613     2.9320690261     0.1554129710
Bq        -0.7522886204     2.9468094814     0.4518868148
Bq        -0.6943848083     2.9271555411     0.0565883565
Bq        -0.7667645735     2.9517229665     0.5507114294
Bq        -0.6799088552     2.9222420560    -0.0422362581
Bq        -0.7812405265     2.9566364516     0.6495360440
Bq        -0.6654329022     2.9173285709    -0.1410608727
Bq        -0.7957164796     2.9615499366     0.7483606585
Bq        -0.6509569491     2.9124150858    -0.2398854873
Bq        -0.7233367143     2.9369825112     0.2542375856
Bq        -0.7371005334     3.0417752117     0.3482005954
Bq        -0.7081486274     3.0319482415     0.1505513663
Bq        -0.7515764865     3.0466886968     0.4470252100
Bq        -0.6936726743     3.0270347564     0.0517267517
Bq        -0.7660524395     3.0516021819     0.5458498246
Bq        -0.6791967213     3.0221212714    -0.0470978629
Bq        -0.7805283926     3.0565156669     0.6446744392
Bq        -0.6647207682     3.0172077863    -0.1459224775
Bq        -0.7950043456     3.0614291520     0.7434990538
Bq        -0.6502448152     3.0122943012    -0.2447470921
Bq        -0.7226245804     3.0368617266     0.2493759809
Bq        -0.7363883995     3.1416544271     0.3433389907
Bq        -0.7074364934     3.1318274569     0.1456897615
Bq        -0.7508643526     3.1465679121     0.4421636053
Bq        -0.6929605404     3.1269139718     0.0468651469
Bq        -0.7653403056     3.1514813972     0.5409882198
Bq        -0.6784845873     3.1220004867    -0.0519594677
Bq        -0.7798162586     3.1563948823     0.6398128344
Bq        -0.6640086343     3.1170870017    -0.1507840823
Bq        -0.7942922117     3.1613083674     0.7386374490
Bq        -0.6495326812     3.1121735166    -0.2496086968
Bq        -0.7219124465     3.1367409420     0.2445143761
Bq        -0.7356762656     3.2415336424     0.3384773859
Bq        -0.7067243595     3.2317066723     0.1408281567
Bq        -0.7501522186     3.2464471275     0.4373020005
Bq        -0.6922484064     3.2267931872     0.0420035422
Bq        -0.7646281717     3.2513606126     0.5361266151
Bq        -0.6777724534     3.2218797021    -0.0568210724
Bq        -0.7791041247     3.2562740977     0.6349512297
Bq        -0.6632965003     3.2169662170    -0.1556456870
Bq        -0.7935800777     3.2611875828     0.7337758442
Bq        -0.6488205473     3.2120527319    -0.2544703016
Bq        -0.7212003125     3.2366201574     0.2396527713
Bq        -0.7349641316     3.3414128578     0.3336157811
Bq        -0.7060122255     3.3315858877     0.1359665520
Bq        -0.7494400847     3.3463263429     0.4324403957
Bq        -0.6915362725     3.3266724026     0.0371419374
Bq        -0.7639160377     3.3512398280     0.5312650103
Bq        -0.6770603194     3.3217589175    -0.0616826772
Bq        -0.7783919908     3.3561533131     0.6300896249
Bq        -0.6625843664     3.3168454324    -0.1605072918
Bq        -0.7928679438     3.3610667981     0.7289142395
Bq        -0.6481084134     3.3119319473    -0.2593319064
Bq        -0.7204881786     3.3364993727     0.2347911666
Bq        -0.7342519977     3.4412920732     0.3287541764
Bq        -0.7053000916     3.4314651030     0.1311049472
Bq        -0.7487279507     3.4462055583     0.4275787910
Bq        -0.6908241385     3.4265516179     0.0322803326
Bq        -0.7632039038     3.4511190434     0.5264034055
Bq        -0.6763481855     3.4216381329    -0.0665442820
Bq        -0.7776798568     3.4560325284     0.6252280201
Bq        -0.6618722325     3.4167246478    -0.1653688965
Bq        -0.7921558099     3.4609460135     0.7240526347
Bq        -0.6473962794     3.4118111627    -0.2641935111
Bq        -0.7197760446     3.4363785881     0.2299295618
Bq        -0.7335398637     3.5411712886     0.3238925716
Bq        -0.7045879577     3.5313443184     0.1262433424
Bq        -0.7480158168     3.5460847737     0.4227171862
Bq        -0.6901120046     3.5264308333     0.0274187279
Bq        -0.7624917698     3.5509982587     0.5215418008
Bq        -0.6756360516     3.5215173482    -0.0714058867
Bq        -0.7769677229     3.5559117438     0.6203664154
Bq        -0.6611600985     3.5166038632    -0.1702305013
Bq        -0.7914436759     3.5608252289     0.7191910299
Bq        -0.6466841455     3.5116903781    -0.2690551159
Bq        -0.7190639107     3.5362578035     0.2250679570
Bq        -0.7328277298     3.6410505039     0.3190309668
Bq        -0.7038758237     3.6312235338     0.1213817377
Bq        -0.7473036828     3.6459639890     0.4178555814
Bq        -0.6893998707     3.6263100487     0.0225571231
Bq        -0.7617796359     3.6508774741     0.5166801960
Bq        -0.6749239176     3.6213965636    -0.0762674915
Bq        -0.7762555889     3.6557909592     0.6155048106
Bq        -0.6604479646     3.6164830785    -0.1750921061
Bq        -0.7907315420     3.6607044443     0.7143294252
Bq        -0.6459720115     3.6115695935    -0.2739167207
Bq        -0.7183517768     3.6361370189     0.2202063523
Bq        -0.7321155959     3.7409297193     0.3141693621
Bq        -0.7031636898     3.7311027492     0.1165201329
Bq        -0.7465915489     3.7458432044     0.4129939767
Bq        -0.6886877367     3.7261892641     0.0176955183
Bq        -0.7610675019     3.7507566895     0.5118185912
Bq        -0.6742117837     3.7212757790    -0.0811290963
Bq        -0.7755434550     3.7556701746     0.6106432058
Bq        -0.6597358306     3.7163622939    -0.1799537108
Bq        -0.7900194080     3.7605836597     0.7094678204
Bq        -0.6452598776     3.7114488088    -0.2787783254
Bq        -0.7176396428     3.7360162342     0.2153447475
Bq        -0.7314034619     3.8408089347     0.3093077573
Bq        -0.7024515558     3.8309819645     0.1116585281
Bq        -0.7458794150     3.8457224198     0.4081323719
Bq        -0.6879756028     3.8260684795     0.0128339136
Bq        -0.7603553680     3.8506359049     0.5069569865
Bq        -0.6734996497     3.8211549944    -0.0859907010
Bq        -0.7748313210     3.8555493900     0.6057816011
Bq        -0.6590236967     3.8162415093    -0.1848153156
Bq        -0.7893072741     3.8604628750     0.7046062156
Bq        -0.6445477436     3.8113280242    -0.2836399302
Bq        -0.7169275089     3.8358954496     0.2104831427
Bq        -0.7306913280     3.9406881501     0.3044461525
Bq        -0.7017394219     3.9308611799     0.1067969234
Bq        -0.7451672810     3.9456016352     0.4032707671
Bq        -0.6872634688     3.9259476948     0.0079723088
Bq        -0.7596432341     3.9505151202     0.5020953817

1
2
3
4
5
6
7
8
9
10
11
12
13
14
15
16
17
18
19
20
21
22
23
24
25
26
27
28
29
30
31
32
33
34
35
36
37
38
39
40
41
42
43
44
45
46
47
48
49
50
51
52
53
54
55
56
57
58
59
60
61
62
63
64
65
66
67
68
69
70
71
72
73
74
75
76
77
78
79
80
81
82
83
84
85
86
87
88
89
90
91
92
93
94
95
96
97
98
99
100
101
102
103
104
105
106
107
108
109
110
111
112
113
114
115
116
117
118
119
120
121
122
123
124
125
126
127
128
129
130
131
132
133
134
135
136
137
138
139
140
141
142
143
144
145
146
147
148
149
150
151
152
153
154
155
156
157
158
159
160
161
162
163
164
165
166
167
168
169
170
171
172
173
174
175
176
177
178
179
180
181
182
183
184
185
186
187
188
189
190
191
192
193
194
195
196
197
198
199
200
201
202
203
204
205
206
207
208
209
210
211
212
213
214
215
216
217
218
219
220
221
222
223
224
225
226
227
228
229
230
231
232
233
234
235
236

