%nproc=8
%mem=1000MB
# rb3lyp/6-311+g** NMR geom=connectivity

Title

0 1
C    -4.0500558   -0.5771862    0.8136712
H    -5.0263804   -1.0082727    1.0024760
C    -3.9381552    0.6617804    0.2400876
H    -4.8252424    1.2338890   -0.0111295
C    -2.6768410    1.2433246    0.0057578
C    -1.4974121    0.5051527    0.2848253
C    -1.6508332   -0.7338728    0.9404026
H    -0.7713646   -1.2730967    1.2633753
C    -2.8898548   -1.2624035    1.1994307
H    -2.9683706   -2.2124563    1.7152676
C    -2.5773185    2.5963696   -0.4192930
H    -3.4870728    3.1412239   -0.6474055
C    -1.3741895    3.2147896   -0.4364030
H    -1.2997315    4.2742019   -0.6578144
C    -0.1719488    2.4994090   -0.1734588
C    -0.2043917    1.1018437    0.0192689
C     1.0513491    3.2042560   -0.0676222
H     1.0427344    4.2819499   -0.1896997
C     2.1942091    2.5487446    0.2579577
H     3.1168527    3.0912848    0.4334727
C     2.2216473    1.1336562    0.2934990
C     1.0486931    0.3945528    0.0302412
C     3.4483363    0.4614633    0.5573939
H     4.3095794    1.0606054    0.8334846
C     3.5427346   -0.8855926    0.4749463
H     4.4731467   -1.3939704    0.7038822
C     2.4490052   -1.6474447   -0.0196319
C     1.2150704   -1.0057258   -0.3013573
C     0.2531113   -1.7434440   -1.0216591
H    -0.6541356   -1.2535051   -1.3462847
C     0.4494193   -3.0628597   -1.3413779
H    -0.3083162   -3.5944309   -1.9054060
C     1.6251726   -3.7207967   -0.9552541
H     1.7670048   -4.7687404   -1.1927019
C     2.6109872   -3.0144177   -0.3183050
H     3.5525612   -3.4902813   -0.0646367
Bq        -3.6140663016     4.0186312576    -0.2378878825
Bq        -3.6169353287     4.1401204069    -0.1655542439
Bq        -3.6092513660     4.0910217722    -0.3592815800
Bq        -3.6207773100     4.1646697243    -0.0686905758
Bq        -3.6054093847     4.0664724548    -0.4561452481
Bq        -3.6246192914     4.1892190417     0.0281730923
Bq        -3.6015674034     4.0419231374    -0.5530089162
Bq        -3.6284612727     4.2137683590     0.1250367604
Bq        -3.5977254220     4.0173738200    -0.6498725843
Bq        -3.6323032540     4.2383176764     0.2219004285
Bq        -3.5938834407     3.9928245027    -0.7467362524
Bq        -3.6130933474     4.1155710895    -0.2624179120
Bq        -3.6159623745     4.2370602389    -0.1900842733
Bq        -3.6082784118     4.1879616041    -0.3838116095
Bq        -3.6198043558     4.2616095562    -0.0932206052
Bq        -3.6044364305     4.1634122867    -0.4806752776
Bq        -3.6236463371     4.2861588736     0.0036430629
Bq        -3.6005944492     4.1388629694    -0.5775389457
Bq        -3.6274883185     4.3107081910     0.1005067310
Bq        -3.5967524678     4.1143136520    -0.6744026137
Bq        -3.6313302998     4.3352575084     0.1973703991
Bq        -3.5929104865     4.0897643346    -0.7712662818
Bq        -3.6121203931     4.2125109215    -0.2869479414
Bq        -3.6149894202     4.3340000708    -0.2146143027
Bq        -3.6073054576     4.2849014360    -0.4083416389
Bq        -3.6188314016     4.3585493882    -0.1177506346
Bq        -3.6034634763     4.2603521187    -0.5052053070
Bq        -3.6226733829     4.3830987055    -0.0208869665
Bq        -3.5996214949     4.2358028013    -0.6020689751
Bq        -3.6265153642     4.4076480229     0.0759767015
Bq        -3.5957795136     4.2112534839    -0.6989326432
Bq        -3.6303573456     4.4321973403     0.1728403696
Bq        -3.5919375323     4.1867041665    -0.7957963113
Bq        -3.6111474389     4.3094507534    -0.3114779708
Bq        -3.6140164660     4.4309399027    -0.2391443321
Bq        -3.6063325034     4.3818412680    -0.4328716683
Bq        -3.6178584474     4.4554892201    -0.1422806641
Bq        -3.6024905220     4.3572919506    -0.5297353364
Bq        -3.6217004287     4.4800385375    -0.0454169960
Bq        -3.5986485407     4.3327426332    -0.6265990045
Bq        -3.6255424100     4.5045878549     0.0514466721
Bq        -3.5948065594     4.3081933159    -0.7234626726
Bq        -3.6293843913     4.5291371722     0.1483103402
Bq        -3.5909645780     4.2836439985    -0.8203263407
Bq        -3.6101744847     4.4063905854    -0.3360080002
Bq        -3.5627427454    -0.4160516942     0.9913204031
Bq        -3.5550587828    -0.4651503290     0.7975930669
Bq        -3.5665847267    -0.3915023768     1.0881840712
Bq        -3.5512168014    -0.4896996464     0.7007293988
Bq        -3.5704267081    -0.3669530595     1.1850477393
Bq        -3.5473748201    -0.5142489637     0.6038657307
Bq        -3.5742686894    -0.3424037421     1.2819114073
Bq        -3.5435328388    -0.5387982811     0.5070020626
Bq        -3.5781106707    -0.3178544247     1.3787750754
Bq        -3.5396908574    -0.5633475985     0.4101383945
Bq        -3.5589007641    -0.4406010116     0.8944567350
Bq        -3.5617697912    -0.3191118623     0.9667903736
Bq        -3.5540858285    -0.3682104970     0.7730630375
Bq        -3.5656117725    -0.2945625449     1.0636540417
Bq        -3.5502438472    -0.3927598144     0.6761993694
Bq        -3.5694537538    -0.2700132275     1.1605177098
Bq        -3.5464018659    -0.4173091318     0.5793357013
Bq        -3.5732957352    -0.2454639102     1.2573813779
Bq        -3.5425598845    -0.4418584492     0.4824720332
Bq        -3.5771377165    -0.2209145928     1.3542450460
Bq        -3.5387179032    -0.4664077665     0.3856083651
Bq        -3.5579278099    -0.3436611797     0.8699267056
Bq        -3.5607968370    -0.2221720303     0.9422603442
Bq        -3.5531128743    -0.2712706651     0.7485330080
Bq        -3.5646388183    -0.1976227130     1.0391240123
Bq        -3.5492708930    -0.2958199825     0.6516693399
Bq        -3.5684807996    -0.1730733956     1.1359876804
Bq        -3.5454289116    -0.3203692998     0.5548056719
Bq        -3.5723227809    -0.1485240782     1.2328513485
Bq        -3.5415869303    -0.3449186172     0.4579420038
Bq        -3.5761647623    -0.1239747608     1.3297150166
Bq        -3.5377449490    -0.3694679346     0.3610783357
Bq        -3.5569548556    -0.2467213477     0.8453966761
Bq        -3.5598238827    -0.1252321984     0.9177303148
Bq        -3.5521399201    -0.1743308332     0.7240029786
Bq        -3.5636658641    -0.1006828810     1.0145939829
Bq        -3.5482979387    -0.1988801505     0.6271393105
Bq        -3.5675078454    -0.0761335637     1.1114576510
Bq        -3.5444559574    -0.2234294679     0.5302756424
Bq        -3.5713498267    -0.0515842463     1.2083213191
Bq        -3.5406139761    -0.2479787853     0.4334119743
Bq        -3.5751918081    -0.0270349289     1.3051849872
Bq        -3.5367719948    -0.2725281027     0.3365483063
Bq        -3.5559819014    -0.1497815158     0.8208666467
Bq        -3.5588509285    -0.0282923665     0.8932002854
Bq        -3.5511669659    -0.0773910012     0.6994729492
Bq        -3.5626929098    -0.0037430491     0.9900639535
Bq        -3.5473249845    -0.1019403186     0.6026092811
Bq        -3.5665348912     0.0208062683     1.0869276215
Bq        -3.5434830032    -0.1264896360     0.5057456130
Bq        -3.5703768725     0.0453555857     1.1837912896
Bq        -3.5396410219    -0.1510389533     0.4088819449
Bq        -3.5742188538     0.0699049030     1.2806549577
Bq        -3.5357990405    -0.1755882707     0.3120182768
Bq        -3.5550089472    -0.0528416838     0.7963366173
Bq        -3.5578779743     0.0686474655     0.8686702559
Bq        -3.5501940116     0.0195488307     0.6749429198
Bq        -3.5617199556     0.0931967828     0.9655339240
Bq        -3.5463520303    -0.0050004867     0.5780792517
Bq        -3.5655619369     0.1177461002     1.0623975921
Bq        -3.5425100490    -0.0295498040     0.4812155836
Bq        -3.5694039183     0.1422954176     1.1592612602
Bq        -3.5386680676    -0.0540991214     0.3843519155
Bq        -3.5732458996     0.1668447350     1.2561249283
Bq        -3.5348260863    -0.0786484388     0.2874882474
Bq        -3.5540359930     0.0440981481     0.7718065878
Bq        -3.5569050201     0.1655872974     0.8441402265
Bq        -3.5492210574     0.1164886627     0.6504128903
Bq        -3.5607470014     0.1901366148     0.9410038946
Bq        -3.5453790761     0.0919393453     0.5535492222
Bq        -3.5645889827     0.2146859322     1.0378675627
Bq        -3.5415370947     0.0673900279     0.4566855541
Bq        -3.5684309641     0.2392352495     1.1347312308
Bq        -3.5376951134     0.0428407105     0.3598218861
Bq        -3.5722729454     0.2637845669     1.2315948989
Bq        -3.5338531321     0.0182913932     0.2629582180
Bq        -3.5530630387     0.1410379800     0.7472765584
Bq        -3.5559320658     0.2625271294     0.8196101971
Bq        -3.5482481032     0.2134284946     0.6258828609
Bq        -3.5597740472     0.2870764467     0.9164738652
Bq        -3.5444061219     0.1888791772     0.5290191928
Bq        -3.5636160285     0.3116257641     1.0133375333
Bq        -3.5405641405     0.1643298598     0.4321555247
Bq        -3.5674580098     0.3361750815     1.1102012014
Bq        -3.5367221592     0.1397805425     0.3352918566
Bq        -3.5712999912     0.3607243989     1.2070648694
Bq        -3.5328801779     0.1152312251     0.2384281885
Bq        -3.5520900845     0.2379778120     0.7227465290
Bq        -3.5549591116     0.3594669613     0.7950801677
Bq        -3.5472751490     0.3103683265     0.6013528315
Bq        -3.5588010929     0.3840162787     0.8919438357
Bq        -3.5434331676     0.2858190092     0.5044891634
Bq        -3.5626430743     0.4085655960     0.9888075038
Bq        -3.5395911863     0.2612696918     0.4076254953
Bq        -3.5664850556     0.4331149134     1.0856711719
Bq        -3.5357492050     0.2367203744     0.3107618272
Bq        -3.5703270369     0.4576642308     1.1825348400
Bq        -3.5319072236     0.2121710570     0.2138981591
Bq        -3.5511171303     0.3349176439     0.6982164996
Bq        -3.5539861574     0.4564067932     0.7705501382
Bq        -3.5463021947     0.4073081585     0.5768228020
Bq        -3.5578281387     0.4809561106     0.8674138063
Bq        -3.5424602134     0.3827588411     0.4799591340
Bq        -3.5616701200     0.5055054280     0.9642774744
Bq        -3.5386182321     0.3582095237     0.3830954659
Bq        -3.5655121014     0.5300547454     1.0611411425
Bq        -3.5347762507     0.3336602064     0.2862317978
Bq        -3.5693540827     0.5546040627     1.1580048106
Bq        -3.5309342694     0.3091108890     0.1893681297
Bq        -3.5501441761     0.4318574759     0.6736864701
Bq        -3.5530132032     0.5533466252     0.7460201088
Bq        -3.5453292405     0.5042479904     0.5522927726
Bq        -3.5568551845     0.5778959425     0.8428837769
Bq        -3.5414872592     0.4796986730     0.4554291045
Bq        -3.5606971658     0.6024452599     0.9397474450
Bq        -3.5376452778     0.4551493557     0.3585654364
Bq        -3.5645391472     0.6269945773     1.0366111131
Bq        -3.5338032965     0.4306000383     0.2617017684
Bq        -3.5683811285     0.6515438947     1.1334747812
Bq        -3.5299613152     0.4060507209     0.1648381003
Bq        -3.5491712218     0.5287973078     0.6491564407
Bq        -3.5520402489     0.6502864571     0.7214900794
Bq        -3.5443562863     0.6011878224     0.5277627432
Bq        -3.5558822303     0.6748357745     0.8183537475
Bq        -3.5405143050     0.5766385050     0.4308990751
Bq        -3.5597242116     0.6993850919     0.9152174156
Bq        -3.5366723236     0.5520891876     0.3340354070
Bq        -3.5635661929     0.7239344092     1.0120810836
Bq        -3.5328303423     0.5275398702     0.2371717389
Bq        -3.5674081743     0.7484837266     1.1089447517
Bq        -3.5289883610     0.5029905529     0.1403080708
Bq        -3.5481982676     0.6257371397     0.6246264113
Bq        -3.5510672947     0.7472262890     0.6969600499
Bq        -3.5433833321     0.6981276543     0.5032327138
Bq        -3.5549092760     0.7717756064     0.7938237180
Bq        -3.5395413507     0.6735783369     0.4063690457
Bq        -3.5587512574     0.7963249238     0.8906873861
Bq        -3.5356993694     0.6490290195     0.3095053776
Bq        -3.5625932387     0.8208742412     0.9875510542
Bq        -3.5318573881     0.6244797022     0.2126417095
Bq        -3.5664352200     0.8454235585     1.0844147223
Bq        -3.5280154067     0.5999303848     0.1157780414
Bq        -3.5472253134     0.7226769717     0.6000963819
Bq        -3.5500943405     0.8441661210     0.6724300205
Bq        -3.5424103778     0.7950674862     0.4787026843
Bq        -3.5539363218     0.8687154384     0.7692936886
Bq        -3.5385683965     0.7705181689     0.3818390162
Bq        -3.5577783032     0.8932647557     0.8661573567
Bq        -3.5347264152     0.7459688515     0.2849753482
Bq        -3.5616202845     0.9178140731     0.9630210248
Bq        -3.5308844338     0.7214195341     0.1881116801
Bq        -3.5654622658     0.9423633905     1.0598846929
Bq        -3.5270424525     0.6968702167     0.0912480120
Bq        -3.5462523592     0.8196168036     0.5755663524
Bq        -3.5491213863     0.9411059529     0.6478999911

1
2
3
4
5
6
7
8
9
10
11
12
13
14
15
16
17
18
19
20
21
22
23
24
25
26
27
28
29
30
31
32
33
34
35
36
37
38
39
40
41
42
43
44
45
46
47
48
49
50
51
52
53
54
55
56
57
58
59
60
61
62
63
64
65
66
67
68
69
70
71
72
73
74
75
76
77
78
79
80
81
82
83
84
85
86
87
88
89
90
91
92
93
94
95
96
97
98
99
100
101
102
103
104
105
106
107
108
109
110
111
112
113
114
115
116
117
118
119
120
121
122
123
124
125
126
127
128
129
130
131
132
133
134
135
136
137
138
139
140
141
142
143
144
145
146
147
148
149
150
151
152
153
154
155
156
157
158
159
160
161
162
163
164
165
166
167
168
169
170
171
172
173
174
175
176
177
178
179
180
181
182
183
184
185
186
187
188
189
190
191
192
193
194
195
196
197
198
199
200
201
202
203
204
205
206
207
208
209
210
211
212
213
214
215
216
217
218
219
220
221
222
223
224
225
226
227
228
229
230
231
232
233
234
235
236

