%nproc=8
%mem=1000MB
# rb3lyp/6-311+g** NMR geom=connectivity

Title

0 1
C    -4.0500558   -0.5771862    0.8136712
H    -5.0263804   -1.0082727    1.0024760
C    -3.9381552    0.6617804    0.2400876
H    -4.8252424    1.2338890   -0.0111295
C    -2.6768410    1.2433246    0.0057578
C    -1.4974121    0.5051527    0.2848253
C    -1.6508332   -0.7338728    0.9404026
H    -0.7713646   -1.2730967    1.2633753
C    -2.8898548   -1.2624035    1.1994307
H    -2.9683706   -2.2124563    1.7152676
C    -2.5773185    2.5963696   -0.4192930
H    -3.4870728    3.1412239   -0.6474055
C    -1.3741895    3.2147896   -0.4364030
H    -1.2997315    4.2742019   -0.6578144
C    -0.1719488    2.4994090   -0.1734588
C    -0.2043917    1.1018437    0.0192689
C     1.0513491    3.2042560   -0.0676222
H     1.0427344    4.2819499   -0.1896997
C     2.1942091    2.5487446    0.2579577
H     3.1168527    3.0912848    0.4334727
C     2.2216473    1.1336562    0.2934990
C     1.0486931    0.3945528    0.0302412
C     3.4483363    0.4614633    0.5573939
H     4.3095794    1.0606054    0.8334846
C     3.5427346   -0.8855926    0.4749463
H     4.4731467   -1.3939704    0.7038822
C     2.4490052   -1.6474447   -0.0196319
C     1.2150704   -1.0057258   -0.3013573
C     0.2531113   -1.7434440   -1.0216591
H    -0.6541356   -1.2535051   -1.3462847
C     0.4494193   -3.0628597   -1.3413779
H    -0.3083162   -3.5944309   -1.9054060
C     1.6251726   -3.7207967   -0.9552541
H     1.7670048   -4.7687404   -1.1927019
C     2.6109872   -3.0144177   -0.3183050
H     3.5525612   -3.4902813   -0.0646367
Bq        -2.8802804639     2.0874639484    -0.3297413041
Bq        -2.8834664241     2.4788084015     0.4807149678
Bq        -2.8799264684     2.0439812314    -0.4197920010
Bq        -2.8816964462     2.2613948164     0.0304614834
Bq        -2.8818795095     2.3949289261     0.0770297992
Bq        -2.8811715184     2.3079634921    -0.1030715945
Bq        -2.8822335051     2.4384116431     0.1670804961
Bq        -2.8808175228     2.2644807751    -0.1931222914
Bq        -2.8825875007     2.4818943601     0.2571311930
Bq        -2.8804635272     2.2209980581    -0.2831729883
Bq        -2.8829414963     2.5253770771     0.3471818899
Bq        -2.8801095317     2.1775153411    -0.3732236852
Bq        -2.8832954918     2.5688597941     0.4372325868
Bq        -2.8797555361     2.1340326241    -0.4632743821
Bq        -2.8815255140     2.3514462091    -0.0130208976
Bq        -2.8817085773     2.4849803188     0.0335474182
Bq        -2.8810005861     2.3980148848    -0.1465539756
Bq        -2.8820625728     2.5284630358     0.1235981151
Bq        -2.8806465905     2.3545321678    -0.2366046724
Bq        -2.8824165684     2.5719457528     0.2136488120
Bq        -2.8802925950     2.3110494508    -0.3266553693
Bq        -2.8827705640     2.6154284698     0.3036995089
Bq        -2.8799385994     2.2675667338    -0.4167060662
Bq        -2.8831245596     2.6589111868     0.3937502057
Bq        -2.8795846038     2.2240840168    -0.5067567631
Bq        -2.8813545817     2.4414976018    -0.0565032787
Bq        -2.7902559636    -2.0175893147     2.2080595738
Bq        -2.7895479725    -2.1045547487     2.0279581800
Bq        -2.7906099592    -1.9741065977     2.2981102707
Bq        -2.7891939769    -2.1480374658     1.9379074831
Bq        -2.7909639548    -1.9306238807     2.3881609675
Bq        -2.7888399814    -2.1915201828     1.8478567862
Bq        -2.7913179504    -1.8871411637     2.4782116644
Bq        -2.7884859858    -2.2350028998     1.7578060894
Bq        -2.7916719459    -1.8436584467     2.5682623613
Bq        -2.7881319902    -2.2784856168     1.6677553925
Bq        -2.7899019681    -2.0610720317     2.1180088769
Bq        -2.7900850314    -1.9275379221     2.1645771927
Bq        -2.7893770402    -2.0145033561     1.9844757990
Bq        -2.7904390269    -1.8840552051     2.2546278896
Bq        -2.7890230447    -2.0579860731     1.8944251021
Bq        -2.7907930225    -1.8405724881     2.3446785865
Bq        -2.7886690491    -2.1014687901     1.8043744052
Bq        -2.7911470181    -1.7970897711     2.4347292834
Bq        -2.7883150535    -2.1449515071     1.7143237083
Bq        -2.7915010137    -1.7536070540     2.5247799803
Bq        -2.7879610579    -2.1884342241     1.6242730114
Bq        -2.7897310358    -1.9710206391     2.0745264959
Bq        -2.7899140991    -1.8374865294     2.1210948117
Bq        -2.7892061080    -1.9244519634     1.9409934179
Bq        -2.7902680947    -1.7940038124     2.2111455086
Bq        -2.7888521124    -1.9679346804     1.8509427211
Bq        -2.7906220902    -1.7505210954     2.3011962055
Bq        -2.7884981168    -2.0114173974     1.7608920242
Bq        -2.7909760858    -1.7070383784     2.3912469024
Bq        -2.7881441212    -2.0549001144     1.6708413273
Bq        -2.7913300814    -1.6635556614     2.4812975992
Bq        -2.7877901257    -2.0983828314     1.5807906304
Bq        -2.7895601035    -1.8809692464     2.0310441148
Bq        -2.7897431668    -1.7474351367     2.0776124307
Bq        -2.7890351757    -1.8344005707     1.8975110369
Bq        -2.7900971624    -1.7039524197     2.1676631276
Bq        -2.7886811801    -1.8778832877     1.8074603400
Bq        -2.7904511580    -1.6604697027     2.2577138244
Bq        -2.7883271845    -1.9213660047     1.7174096431
Bq        -2.7908051535    -1.6169869857     2.3477645213
Bq        -2.7879731890    -1.9648487217     1.6273589463
Bq        -2.7911591491    -1.5735042687     2.4378152182
Bq        -2.7876191934    -2.0083314388     1.5373082494
Bq        -2.7893891713    -1.7909178537     1.9875617338
Bq        -2.7895722346    -1.6573837441     2.0341300496
Bq        -2.7888642434    -1.7443491781     1.8540286559
Bq        -2.7899262301    -1.6139010270     2.1241807465
Bq        -2.7885102478    -1.7878318951     1.7639779590
Bq        -2.7902802257    -1.5704183100     2.2142314434
Bq        -2.7881562523    -1.8313146121     1.6739272621
Bq        -2.7906342213    -1.5269355930     2.3042821403
Bq        -2.7878022567    -1.8747973291     1.5838765652
Bq        -2.7909882168    -1.4834528760     2.3943328372
Bq        -2.7874482611    -1.9182800461     1.4938258683
Bq        -2.7892182390    -1.7008664611     1.9440793528
Bq        -2.7894013023    -1.5673323514     1.9906476686
Bq        -2.7886933111    -1.6542977854     1.8105462748
Bq        -2.7897552979    -1.5238496344     2.0806983655
Bq        -2.7883393156    -1.6977805024     1.7204955780
Bq        -2.7901092934    -1.4803669174     2.1707490624
Bq        -2.7879853200    -1.7412632194     1.6304448811
Bq        -2.7904632890    -1.4368842004     2.2607997593
Bq        -2.7876313244    -1.7847459364     1.5403941842
Bq        -2.7908172846    -1.3934014834     2.3508504561
Bq        -2.7872773288    -1.8282286534     1.4503434873
Bq        -2.7890473067    -1.6108150684     1.9005969717
Bq        -2.7892303700    -1.4772809587     1.9471652876
Bq        -2.7885223789    -1.5642463927     1.7670638938
Bq        -2.7895843656    -1.4337982417     2.0372159845
Bq        -2.7881683833    -1.6077291097     1.6770131969
Bq        -2.7899383611    -1.3903155247     2.1272666813
Bq        -2.7878143877    -1.6512118267     1.5869625000
Bq        -2.7902923567    -1.3468328077     2.2173173782
Bq        -2.7874603921    -1.6946945437     1.4969118032
Bq        -2.7906463523    -1.3033500907     2.3073680751
Bq        -2.7871063966    -1.7381772607     1.4068611063
Bq        -2.7888763744    -1.5207636757     1.8571145907
Bq        -2.7890594377    -1.3872295660     1.9036829065
Bq        -2.7883514466    -1.4741950001     1.7235815128
Bq        -2.7894134333    -1.3437468490     1.9937336034
Bq        -2.7879974510    -1.5176777171     1.6335308159
Bq        -2.7897674289    -1.3002641320     2.0837843003
Bq        -2.7876434554    -1.5611604341     1.5434801190
Bq        -2.7901214244    -1.2567814150     2.1738349972
Bq        -2.7872894599    -1.6046431511     1.4534294221
Bq        -2.7904754200    -1.2132986980     2.2638856941
Bq        -2.7869354643    -1.6481258681     1.3633787253
Bq        -2.7887054422    -1.4307122830     1.8136322097
Bq        -2.7888885055    -1.2971781734     1.8602005255
Bq        -2.7881805143    -1.3841436074     1.6800991317
Bq        -2.7892425010    -1.2536954564     1.9502512224
Bq        -2.7878265187    -1.4276263244     1.5900484349
Bq        -2.7895964966    -1.2102127394     2.0403019193
Bq        -2.7874725232    -1.4711090414     1.4999977380
Bq        -2.7899504922    -1.1667300224     2.1303526162
Bq        -2.7871185276    -1.5145917584     1.4099470411
Bq        -2.7903044877    -1.1232473054     2.2204033130
Bq        -2.7867645320    -1.5580744754     1.3198963442
Bq        -2.7885345099    -1.3406608904     1.7701498286
Bq        -2.7887175732    -1.2071267807     1.8167181445
Bq        -2.7880095820    -1.2940922147     1.6366167507
Bq        -2.7890715688    -1.1636440637     1.9067688414
Bq        -2.7876555865    -1.3375749317     1.5465660538
Bq        -2.7894255643    -1.1201613467     1.9968195382
Bq        -2.7873015909    -1.3810576487     1.4565153570
Bq        -2.7897795599    -1.0766786297     2.0868702351
Bq        -2.7869475953    -1.4245403657     1.3664646601
Bq        -2.7901335555    -1.0331959127     2.1769209320
Bq        -2.7865935997    -1.4680230827     1.2764139632
Bq        -2.7883635776    -1.2506094977     1.7266674476
Bq        -2.7885466409    -1.1170753880     1.7732357634
Bq        -2.7878386498    -1.2040408220     1.5931343697
Bq        -2.7889006365    -1.0735926710     1.8632864603
Bq        -2.7874846542    -1.2475235390     1.5030836728
Bq        -2.7892546321    -1.0301099540     1.9533371572
Bq        -2.7871306586    -1.2910062560     1.4130329759
Bq        -2.7896086276    -0.9866272370     2.0433878541
Bq        -2.7867766630    -1.3344889731     1.3229822790
Bq        -2.7899626232    -0.9431445200     2.1334385510
Bq        -2.7864226675    -1.3779716901     1.2329315822
Bq        -2.7881926453    -1.1605581050     1.6831850666
Bq        -2.7883757086    -1.0270239954     1.7297533824
Bq        -2.7876677175    -1.1139894294     1.5496519887
Bq        -2.7887297042    -0.9835412784     1.8198040793
Bq        -2.7873137219    -1.1574721464     1.4596012918
Bq        -2.7890836998    -0.9400585614     1.9098547762
Bq        -2.7869597263    -1.2009548634     1.3695505949
Bq        -2.7894376954    -0.8965758443     1.9999054731
Bq        -2.7866057308    -1.2444375804     1.2794998980
Bq        -2.7897916909    -0.8530931273     2.0899561699
Bq        -2.7862517352    -1.2879202974     1.1894492011
Bq        -2.7880217131    -1.0705067124     1.6397026855
Bq        -2.7882047764    -0.9369726027     1.6862710014
Bq        -2.7874967852    -1.0239380367     1.5061696076
Bq        -2.7885587719    -0.8934898857     1.7763216983
Bq        -2.7871427896    -1.0674207537     1.4161189107
Bq        -2.7889127675    -0.8500071687     1.8663723951
Bq        -2.7867887941    -1.1109034707     1.3260682139
Bq        -2.7892667631    -0.8065244517     1.9564230920
Bq        -2.7864347985    -1.1543861877     1.2360175170
Bq        -2.7896207587    -0.7630417347     2.0464737889
Bq        -2.7860808029    -1.1978689047     1.1459668201
Bq        -2.7878507808    -0.9804553197     1.5962203045
Bq        -2.7880338441    -0.8469212100     1.6427886204
Bq        -2.7873258529    -0.9338866440     1.4626872266
Bq        -2.7883878397    -0.8034384930     1.7328393172
Bq        -2.7869718574    -0.9773693610     1.3726365297
Bq        -2.7887418352    -0.7599557760     1.8228900141
Bq        -2.7866178618    -1.0208520780     1.2825858328
Bq        -2.7890958308    -0.7164730590     1.9129407110
Bq        -2.7862638662    -1.0643347950     1.1925351359
Bq        -2.7894498264    -0.6729903420     2.0029914079
Bq        -2.7859098706    -1.1078175120     1.1024844391
Bq        -2.7876798485    -0.8904039270     1.5527379235
Bq        -2.7878629118    -0.7568698173     1.5993062393
Bq        -2.7871549207    -0.8438352514     1.4192048456
Bq        -2.7882169074    -0.7133871003     1.6893569362
Bq        -2.7868009251    -0.8873179684     1.3291541487
Bq        -2.7885709030    -0.6699043833     1.7794076331
Bq        -2.7864469295    -0.9308006854     1.2391034518
Bq        -2.7889248985    -0.6264216663     1.8694583300
Bq        -2.7860929339    -0.9742834024     1.1490527549
Bq        -2.7892788941    -0.5829389493     1.9595090268
Bq        -2.7857389384    -1.0177661194     1.0590020580
Bq        -2.7875089162    -0.8003525344     1.5092555424
Bq        -2.7876919795    -0.6668184247     1.5558238583
Bq        -2.7869839884    -0.7537838587     1.3757224645
Bq        -2.7880459751    -0.6233357077     1.6458745552
Bq        -2.7866299928    -0.7972665757     1.2856717676
Bq        -2.7883999707    -0.5798529907     1.7359252521
Bq        -2.7862759972    -0.8407492927     1.1956210708
Bq        -2.7887539663    -0.5363702737     1.8259759489
Bq        -2.7859220017    -0.8842320097     1.1055703739
Bq        -2.7891079618    -0.4928875567     1.9160266458

1
2
3
4
5
6
7
8
9
10
11
12
13
14
15
16
17
18
19
20
21
22
23
24
25
26
27
28
29
30
31
32
33
34
35
36
37
38
39
40
41
42
43
44
45
46
47
48
49
50
51
52
53
54
55
56
57
58
59
60
61
62
63
64
65
66
67
68
69
70
71
72
73
74
75
76
77
78
79
80
81
82
83
84
85
86
87
88
89
90
91
92
93
94
95
96
97
98
99
100
101
102
103
104
105
106
107
108
109
110
111
112
113
114
115
116
117
118
119
120
121
122
123
124
125
126
127
128
129
130
131
132
133
134
135
136
137
138
139
140
141
142
143
144
145
146
147
148
149
150
151
152
153
154
155
156
157
158
159
160
161
162
163
164
165
166
167
168
169
170
171
172
173
174
175
176
177
178
179
180
181
182
183
184
185
186
187
188
189
190
191
192
193
194
195
196
197
198
199
200
201
202
203
204
205
206
207
208
209
210
211
212
213
214
215
216
217
218
219
220
221
222
223
224
225
226
227
228
229
230
231
232
233
234
235
236

