%nproc=8
%mem=1000MB
# rb3lyp/6-311+g** NMR geom=connectivity

Title

0 1
C    -4.0500558   -0.5771862    0.8136712
H    -5.0263804   -1.0082727    1.0024760
C    -3.9381552    0.6617804    0.2400876
H    -4.8252424    1.2338890   -0.0111295
C    -2.6768410    1.2433246    0.0057578
C    -1.4974121    0.5051527    0.2848253
C    -1.6508332   -0.7338728    0.9404026
H    -0.7713646   -1.2730967    1.2633753
C    -2.8898548   -1.2624035    1.1994307
H    -2.9683706   -2.2124563    1.7152676
C    -2.5773185    2.5963696   -0.4192930
H    -3.4870728    3.1412239   -0.6474055
C    -1.3741895    3.2147896   -0.4364030
H    -1.2997315    4.2742019   -0.6578144
C    -0.1719488    2.4994090   -0.1734588
C    -0.2043917    1.1018437    0.0192689
C     1.0513491    3.2042560   -0.0676222
H     1.0427344    4.2819499   -0.1896997
C     2.1942091    2.5487446    0.2579577
H     3.1168527    3.0912848    0.4334727
C     2.2216473    1.1336562    0.2934990
C     1.0486931    0.3945528    0.0302412
C     3.4483363    0.4614633    0.5573939
H     4.3095794    1.0606054    0.8334846
C     3.5427346   -0.8855926    0.4749463
H     4.4731467   -1.3939704    0.7038822
C     2.4490052   -1.6474447   -0.0196319
C     1.2150704   -1.0057258   -0.3013573
C     0.2531113   -1.7434440   -1.0216591
H    -0.6541356   -1.2535051   -1.3462847
C     0.4494193   -3.0628597   -1.3413779
H    -0.3083162   -3.5944309   -1.9054060
C     1.6251726   -3.7207967   -0.9552541
H     1.7670048   -4.7687404   -1.1927019
C     2.6109872   -3.0144177   -0.3183050
H     3.5525612   -3.4902813   -0.0646367
Bq        -2.2856810486     1.0845547944     1.0452586101
Bq        -2.2828490840     0.7366930584     0.3248530350
Bq        -2.2860350442     1.1280375114     1.1353093069
Bq        -2.2824950884     0.6932103414     0.2348023381
Bq        -2.2842650663     0.9106239264     0.6850558225
Bq        -2.2844481296     1.0441580361     0.7316241384
Bq        -2.2837401384     0.9571926021     0.5515227446
Bq        -2.2848021252     1.0876407531     0.8216748353
Bq        -2.2833861429     0.9137098850     0.4614720477
Bq        -2.2851561207     1.1311234701     0.9117255321
Bq        -2.2830321473     0.8702271680     0.3714213509
Bq        -2.2855101163     1.1746061871     1.0017762290
Bq        -2.2826781517     0.8267444510     0.2813706540
Bq        -2.2858641119     1.2180889041     1.0918269259
Bq        -2.2823241561     0.7832617340     0.1913199571
Bq        -2.2840941340     1.0006753191     0.6415734415
Bq        -2.2842771973     1.1342094287     0.6881417573
Bq        -2.2835692062     1.0472439947     0.5080403636
Bq        -2.2846311929     1.1776921457     0.7781924542
Bq        -2.2832152106     1.0037612777     0.4179896667
Bq        -2.2849851885     1.2211748627     0.8682431511
Bq        -2.2828612150     0.9602785607     0.3279389698
Bq        -2.2853391840     1.2646575797     0.9582938480
Bq        -2.2825072194     0.9167958437     0.2378882729
Bq        -2.2856931796     1.3081402968     1.0483445449
Bq        -2.2821532239     0.8733131267     0.1478375761
Bq        -2.2839232017     1.0907267117     0.5980910605
Bq        -2.2841062650     1.2242608214     0.6446593763
Bq        -2.2833982739     1.1372953874     0.4645579826
Bq        -2.2844602606     1.2677435384     0.7347100732
Bq        -2.2830442783     1.0938126704     0.3745072857
Bq        -2.2848142562     1.3112262554     0.8247607701
Bq        -2.2826902827     1.0503299534     0.2844565888
Bq        -2.2851682518     1.3547089724     0.9148114670
Bq        -2.2823362872     1.0068472364     0.1944058919
Bq        -2.2855222473     1.3981916894     1.0048621638
Bq        -2.2819822916     0.9633645194     0.1043551950
Bq        -2.2837522695     1.1807781044     0.5546086794
Bq        -2.2839353328     1.3143122141     0.6011769953
Bq        -2.2832273416     1.2273467801     0.4210756015
Bq        -2.2842893283     1.3577949311     0.6912276922
Bq        -2.2828733460     1.1838640631     0.3310249046
Bq        -2.2846433239     1.4012776481     0.7812783890
Bq        -2.2825193505     1.1403813461     0.2409742078
Bq        -2.2849973195     1.4447603651     0.8713290859
Bq        -2.2821653549     1.0968986291     0.1509235109
Bq        -2.2853513151     1.4882430821     0.9613797828
Bq        -2.2818113593     1.0534159120     0.0608728140
Bq        -2.2835813372     1.2708294971     0.5111262984
Bq        -2.2837644005     1.4043636067     0.5576946143
Bq        -2.2830564093     1.3173981727     0.3775932205
Bq        -2.2841183961     1.4478463237     0.6477453111
Bq        -2.2827024138     1.2739154557     0.2875425236
Bq        -2.2844723916     1.4913290408     0.7377960080
Bq        -2.2823484182     1.2304327387     0.1974918267
Bq        -2.2848263872     1.5348117578     0.8278467049
Bq        -2.2819944226     1.1869500217     0.1074411298
Bq        -2.2851803828     1.5782944748     0.9178974018
Bq        -2.2816404270     1.1434673047     0.0173904330
Bq        -2.2834104049     1.3608808897     0.4676439174
Bq        -2.2835934682     1.4944149994     0.5142122332
Bq        -2.2828854771     1.4074495654     0.3341108395
Bq        -2.2839474638     1.5378977164     0.6042629301
Bq        -2.2825314815     1.3639668484     0.2440601426
Bq        -2.2843014594     1.5813804334     0.6943136270
Bq        -2.2821774859     1.3204841314     0.1540094457
Bq        -2.2846554549     1.6248631504     0.7843643239
Bq        -2.2818234903     1.2770014144     0.0639587488
Bq        -2.2850094505     1.6683458674     0.8744150207
Bq        -2.2814694948     1.2335186974    -0.0260919481
Bq        -2.2832394726     1.4509322824     0.4241615363
Bq        -2.2834225359     1.5844663921     0.4707298522
Bq        -2.2827145448     1.4975009581     0.2906284584
Bq        -2.2837765315     1.6279491091     0.5607805491
Bq        -2.2823605492     1.4540182411     0.2005777615
Bq        -2.2841305271     1.6714318261     0.6508312460
Bq        -2.2820065536     1.4105355241     0.1105270647
Bq        -2.2844845227     1.7149145431     0.7408819428
Bq        -2.2816525581     1.3670528071     0.0204763678
Bq        -2.2848385182     1.7583972601     0.8309326397
Bq        -2.2812985625     1.3235700901    -0.0695743291
Bq        -2.2830685404     1.5409836751     0.3806791553
Bq        -2.2832516037     1.6745177848     0.4272474712
Bq        -2.2825436125     1.5875523507     0.2471460774
Bq        -2.2836055992     1.7180005018     0.5172981680
Bq        -2.2821896169     1.5440696337     0.1570953805
Bq        -2.2839595948     1.7614832188     0.6073488649
Bq        -2.2818356214     1.5005869167     0.0670446836
Bq        -2.2843135904     1.8049659358     0.6973995618
Bq        -2.2814816258     1.4571041997    -0.0230060133
Bq        -2.2846675860     1.8484486528     0.7874502587
Bq        -2.2811276302     1.4136214827    -0.1130567101
Bq        -2.2828976081     1.6310350678     0.3371967743
Bq        -2.2830806714     1.7645691774     0.3837650901
Bq        -2.2823726802     1.6776037434     0.2036636964
Bq        -2.2834346670     1.8080518944     0.4738157870
Bq        -2.2820186847     1.6341210264     0.1136129995
Bq        -2.2837886625     1.8515346114     0.5638664839
Bq        -2.2816646891     1.5906383094     0.0235623026
Bq        -2.2841426581     1.8950173284     0.6539171808
Bq        -2.2813106935     1.5471555924    -0.0664883943
Bq        -2.2844966537     1.9385000454     0.7439678777
Bq        -2.2809566979     1.5036728754    -0.1565390912
Bq        -2.2827266758     1.7210864604     0.2937143932
Bq        -2.2829097391     1.8546205701     0.3402827091
Bq        -2.2822017480     1.7676551361     0.1601813153
Bq        -2.2832637347     1.8981032871     0.4303334060
Bq        -2.2818477524     1.7241724191     0.0701306184
Bq        -2.2836177303     1.9415860041     0.5203841029
Bq        -2.2814937568     1.6806897021    -0.0199200784
Bq        -2.2839717258     1.9850687211     0.6104347997
Bq        -2.2811397612     1.6372069851    -0.1099707753
Bq        -2.2843257214     2.0285514381     0.7004854966
Bq        -2.2807857657     1.5937242681    -0.2000214722
Bq        -2.2825557435     1.8111378531     0.2502320122
Bq        -2.2827388068     1.9446719628     0.2968003281
Bq        -2.2820308157     1.8577065288     0.1166989343
Bq        -2.2830928024     1.9881546798     0.3868510249
Bq        -2.2816768201     1.8142238118     0.0266482374
Bq        -2.2834467980     2.0316373968     0.4769017218
Bq        -2.2813228245     1.7707410947    -0.0634024595
Bq        -2.2838007936     2.0751201138     0.5669524187
Bq        -2.2809688290     1.7272583777    -0.1534531564
Bq        -2.2841547891     2.1186028308     0.6570031156
Bq        -2.2806148334     1.6837756607    -0.2435038532
Bq        -2.2823848113     1.9011892458     0.2067496312
Bq        -2.2825678746     2.0347233554     0.2533179470
Bq        -2.2818598834     1.9477579214     0.0732165533
Bq        -2.2829218701     2.0782060724     0.3433686439
Bq        -2.2815058878     1.9042752044    -0.0168341436
Bq        -2.2832758657     2.1216887894     0.4334193408
Bq        -2.2811518923     1.8607924874    -0.1068848405
Bq        -2.2836298613     2.1651715065     0.5234700377
Bq        -2.2807978967     1.8173097704    -0.1969355374
Bq        -2.2839838569     2.2086542235     0.6135207346
Bq        -2.2804439011     1.7738270534    -0.2869862343
Bq        -2.2822138790     1.9912406384     0.1632672501
Bq        -2.2823969423     2.1247747481     0.2098355660
Bq        -2.2816889511     2.0378093141     0.0297341722
Bq        -2.2827509379     2.1682574651     0.2998862629
Bq        -2.2813349556     1.9943265971    -0.0603165247
Bq        -2.2831049334     2.2117401821     0.3899369598
Bq        -2.2809809600     1.9508438801    -0.1503672215
Bq        -2.2834589290     2.2552228991     0.4799876566
Bq        -2.2806269644     1.9073611631    -0.2404179184
Bq        -2.2838129246     2.2987056161     0.5700383535
Bq        -2.2802729688     1.8638784461    -0.3304686153
Bq        -2.2820429467     2.0812920311     0.1197848691
Bq        -2.2822260100     2.2148261408     0.1663531850
Bq        -2.2815180189     2.1278607068    -0.0137482088
Bq        -2.2825800056     2.2583088578     0.2564038818
Bq        -2.2811640233     2.0843779898    -0.1037989057
Bq        -2.2829340012     2.3017915748     0.3464545787
Bq        -2.2808100277     2.0408952728    -0.1938496026
Bq        -2.2832879967     2.3452742918     0.4365052756
Bq        -2.2804560321     1.9974125558    -0.2839002995
Bq        -2.2836419923     2.3887570088     0.5265559725
Bq        -2.2801020366     1.9539298388    -0.3739509963
Bq        -2.2818720144     2.1713434238     0.0763024881
Bq        -2.2820550777     2.3048775334     0.1228708039
Bq        -2.2813470866     2.2179120994    -0.0572305898
Bq        -2.2824090733     2.3483602505     0.2129215008
Bq        -2.2809930910     2.1744293824    -0.1472812867
Bq        -2.2827630689     2.3918429675     0.3029721977
Bq        -2.2806390954     2.1309466654    -0.2373319836
Bq        -2.2831170645     2.4353256845     0.3930228946
Bq        -2.2802850999     2.0874639484    -0.3273826805
Bq        -2.2834710600     2.4788084015     0.4830735915
Bq        -2.2799311043     2.0439812314    -0.4174333774
Bq        -2.2817010822     2.2613948164     0.0328201070
Bq        -2.2818841455     2.3949289261     0.0793884229
Bq        -2.2811761543     2.3079634921    -0.1007129709
Bq        -2.2822381410     2.4384116431     0.1694391198
Bq        -2.2808221587     2.2644807751    -0.1907636678
Bq        -2.2825921366     2.4818943601     0.2594898167
Bq        -2.2804681632     2.2209980581    -0.2808143646
Bq        -2.2829461322     2.5253770771     0.3495405135
Bq        -2.2801141676     2.1775153411    -0.3708650615
Bq        -2.2833001278     2.5688597941     0.4395912104
Bq        -2.2797601720     2.1340326241    -0.4609157584
Bq        -2.2815301499     2.3514462091    -0.0106622740
Bq        -2.2817132132     2.4849803188     0.0359060419
Bq        -2.2810052220     2.3980148848    -0.1441953519
Bq        -2.2820672088     2.5284630358     0.1259567387
Bq        -2.2806512265     2.3545321678    -0.2342460488
Bq        -2.2824212043     2.5719457528     0.2160074356
Bq        -2.2802972309     2.3110494508    -0.3242967457
Bq        -2.2827751999     2.6154284698     0.3060581325
Bq        -2.2799432353     2.2675667338    -0.4143474426
Bq        -2.2831291955     2.6589111868     0.3961088294
Bq        -2.2795892397     2.2240840168    -0.5043981394
Bq        -2.2813592176     2.4414976018    -0.0541446550
Bq        -2.1902605996    -2.0175893147     2.2104181974
Bq        -2.1895526084    -2.1045547487     2.0303168037
Bq        -2.1906145952    -1.9741065977     2.3004688943
Bq        -2.1891986129    -2.1480374658     1.9402661068
Bq        -2.1909685907    -1.9306238807     2.3905195912
Bq        -2.1888446173    -2.1915201828     1.8502154099
Bq        -2.1913225863    -1.8871411637     2.4805702881
Bq        -2.1884906217    -2.2350028998     1.7601647130

1
2
3
4
5
6
7
8
9
10
11
12
13
14
15
16
17
18
19
20
21
22
23
24
25
26
27
28
29
30
31
32
33
34
35
36
37
38
39
40
41
42
43
44
45
46
47
48
49
50
51
52
53
54
55
56
57
58
59
60
61
62
63
64
65
66
67
68
69
70
71
72
73
74
75
76
77
78
79
80
81
82
83
84
85
86
87
88
89
90
91
92
93
94
95
96
97
98
99
100
101
102
103
104
105
106
107
108
109
110
111
112
113
114
115
116
117
118
119
120
121
122
123
124
125
126
127
128
129
130
131
132
133
134
135
136
137
138
139
140
141
142
143
144
145
146
147
148
149
150
151
152
153
154
155
156
157
158
159
160
161
162
163
164
165
166
167
168
169
170
171
172
173
174
175
176
177
178
179
180
181
182
183
184
185
186
187
188
189
190
191
192
193
194
195
196
197
198
199
200
201
202
203
204
205
206
207
208
209
210
211
212
213
214
215
216
217
218
219
220
221
222
223
224
225
226
227
228
229
230
231
232
233
234
235
236

