%nproc=8
%mem=1000MB
# rb3lyp/6-311+g** NMR geom=connectivity

Title

0 1
C    -4.0500558   -0.5771862    0.8136712
H    -5.0263804   -1.0082727    1.0024760
C    -3.9381552    0.6617804    0.2400876
H    -4.8252424    1.2338890   -0.0111295
C    -2.6768410    1.2433246    0.0057578
C    -1.4974121    0.5051527    0.2848253
C    -1.6508332   -0.7338728    0.9404026
H    -0.7713646   -1.2730967    1.2633753
C    -2.8898548   -1.2624035    1.1994307
H    -2.9683706   -2.2124563    1.7152676
C    -2.5773185    2.5963696   -0.4192930
H    -3.4870728    3.1412239   -0.6474055
C    -1.3741895    3.2147896   -0.4364030
H    -1.2997315    4.2742019   -0.6578144
C    -0.1719488    2.4994090   -0.1734588
C    -0.2043917    1.1018437    0.0192689
C     1.0513491    3.2042560   -0.0676222
H     1.0427344    4.2819499   -0.1896997
C     2.1942091    2.5487446    0.2579577
H     3.1168527    3.0912848    0.4334727
C     2.2216473    1.1336562    0.2934990
C     1.0486931    0.3945528    0.0302412
C     3.4483363    0.4614633    0.5573939
H     4.3095794    1.0606054    0.8334846
C     3.5427346   -0.8855926    0.4749463
H     4.4731467   -1.3939704    0.7038822
C     2.4490052   -1.6474447   -0.0196319
C     1.2150704   -1.0057258   -0.3013573
C     0.2531113   -1.7434440   -1.0216591
H    -0.6541356   -1.2535051   -1.3462847
C     0.4494193   -3.0628597   -1.3413779
H    -0.3083162   -3.5944309   -1.9054060
C     1.6251726   -3.7207967   -0.9552541
H     1.7670048   -4.7687404   -1.1927019
C     2.6109872   -3.0144177   -0.3183050
H     3.5525612   -3.4902813   -0.0646367
Bq         1.4320677174    -0.1740376842     0.7831469994
Bq         1.5861409033    -0.0886717300     0.2095843548
Bq         1.4063888530    -0.1882653432     0.8787407734
Bq         1.6118197676    -0.0744440710     0.1139905807
Bq         1.3807099887    -0.2024930022     0.9743345475
Bq         1.6374986319    -0.0602164119     0.0183968066
Bq         1.5091043103    -0.1313547071     0.4963656771
Bq         1.4797343955    -0.0465996721     0.6056999907
Bq         1.5310921241    -0.0181443540     0.4145124425
Bq         1.4540555311    -0.0608273311     0.7012937648
Bq         1.5567709884    -0.0039166950     0.3189186684
Bq         1.4283766668    -0.0750549901     0.7968875389
Bq         1.5824498528     0.0103109641     0.2233248943
Bq         1.4026978025    -0.0892826491     0.8924813130
Bq         1.6081287171     0.0245386231     0.1277311202
Bq         1.3770189382    -0.1035103082     0.9880750871
Bq         1.6338075814     0.0387662821     0.0321373462
Bq         1.5054132598    -0.0323720130     0.5101062166
Bq         1.4760433449     0.0523830220     0.6194405303
Bq         1.5274010736     0.0808383400     0.4282529821
Bq         1.4503644806     0.0381553629     0.7150343044
Bq         1.5530799379     0.0950659991     0.3326592080
Bq         1.4246856163     0.0239277039     0.8106280785
Bq         1.5787588022     0.1092936581     0.2370654339
Bq         1.3990067520     0.0097000449     0.9062218526
Bq         1.6044376665     0.1235213171     0.1414716598
Bq         1.3733278876    -0.0045276141     1.0018156267
Bq         1.6301165309     0.1377489761     0.0458778857
Bq         1.5017222093     0.0666106810     0.5238467562
Bq         1.4723522944     0.1513657160     0.6331810698
Bq         1.5237100230     0.1798210341     0.4419935217
Bq         1.4466734301     0.1371380570     0.7287748439
Bq         1.5493888874     0.1940486931     0.3463997476
Bq         1.4209945658     0.1229103980     0.8243686180
Bq         1.5750677517     0.2082763521     0.2508059735
Bq         1.3953157014     0.1086827389     0.9199623921
Bq         1.6007466160     0.2225040112     0.1552121994
Bq         1.3696368371     0.0944550799     1.0155561662
Bq         1.6264254803     0.2367316702     0.0596184253
Bq         1.4980311587     0.1655933750     0.5375872957
Bq         1.4686612439     0.2503484100     0.6469216094
Bq         1.5200189725     0.2788037281     0.4557340612
Bq         1.4429823795     0.2361207510     0.7425153835
Bq         1.5456978368     0.2930313871     0.3601402871
Bq         1.4173035152     0.2218930920     0.8381091576
Bq         1.5713767012     0.3072590462     0.2645465130
Bq         1.3916246509     0.2076654330     0.9337029317
Bq         1.5970555655     0.3214867052     0.1689527389
Bq         1.3659457866     0.1934377739     1.0292967058
Bq         1.6227344298     0.3357143642     0.0733589648
Bq         1.4943401082     0.2645760691     0.5513278353
Bq         1.4649701933     0.3493311041     0.6606621490
Bq         1.5163279220     0.3777864221     0.4694746008
Bq         1.4392913290     0.3351034451     0.7562559231
Bq         1.5420067863     0.3920140812     0.3738808267
Bq         1.4136124647     0.3208757860     0.8518496971
Bq         1.5676856506     0.4062417402     0.2782870526
Bq         1.3879336004     0.3066481270     0.9474434712
Bq         1.5933645149     0.4204693992     0.1826932785
Bq         1.3622547360     0.2924204680     1.0430372453
Bq         1.6190433793     0.4346970583     0.0870995044
Bq         1.4906490576     0.3635587631     0.5650683749
Bq         1.4612791428     0.4483137981     0.6744026885
Bq         1.5126368714     0.4767691162     0.4832151403
Bq         1.4356002785     0.4340861391     0.7699964626
Bq         1.5383157358     0.4909967752     0.3876213662
Bq         1.4099214141     0.4198584801     0.8655902367
Bq         1.5639946001     0.5052244342     0.2920275921
Bq         1.3842425498     0.4056308210     0.9611840108
Bq         1.5896734644     0.5194520933     0.1964338180
Bq         1.3585636855     0.3914031620     1.0567777849
Bq         1.6153523287     0.5336797523     0.1008400439
Bq         1.4869580071     0.4625414571     0.5788089144
Bq         1.4575880923     0.5472964922     0.6881432281
Bq         1.5089458209     0.5757518102     0.4969556799
Bq         1.4319092279     0.5330688331     0.7837370022
Bq         1.5346246852     0.5899794692     0.4013619058
Bq         1.4062303636     0.5188411741     0.8793307763
Bq         1.5603035495     0.6042071283     0.3057681317
Bq         1.3805514993     0.5046135151     0.9749245504
Bq         1.5859824139     0.6184347873     0.2101743576
Bq         1.3548726350     0.4903858560     1.0705183245
Bq         1.6116612782     0.6326624463     0.1145805835
Bq         1.4832669566     0.5615241512     0.5925494540
Bq         1.4538970417     0.6462791862     0.7018837676
Bq         1.5052547704     0.6747345042     0.5106962194
Bq         1.4282181774     0.6320515272     0.7974775417
Bq         1.5309336347     0.6889621633     0.4151024454
Bq         1.4025393131     0.6178238681     0.8930713158
Bq         1.5566124990     0.7031898223     0.3195086713
Bq         1.3768604488     0.6035962091     0.9886650899
Bq         1.5822913633     0.7174174813     0.2239148972
Bq         1.3511815844     0.5893685501     1.0842588640
Bq         1.6079702277     0.7316451404     0.1283211231
Bq         1.4795759060     0.6605068452     0.6062899935
Bq         1.4502059912     0.7452618802     0.7156243072
Bq         1.5015637198     0.7737171983     0.5244367590
Bq         1.4245271269     0.7310342212     0.8112180813
Bq         1.5272425842     0.7879448573     0.4288429849
Bq         1.3988482625     0.7168065622     0.9068118554
Bq         1.5529214485     0.8021725163     0.3332492108
Bq         1.3731693982     0.7025789031     1.0024056295
Bq         1.5786003128     0.8164001754     0.2376554367
Bq         1.3474905339     0.6883512441     1.0979994036
Bq         1.6042791771     0.8306278344     0.1420616626
Bq         1.4758848555     0.7594895393     0.6200305331
Bq         1.4465149406     0.8442445743     0.7293648468
Bq         1.4978726693     0.8726998923     0.5381772986
Bq         1.4208360763     0.8300169152     0.8249586208
Bq         1.5235515336     0.8869275513     0.4425835245
Bq         1.3951572120     0.8157892562     0.9205523949
Bq         1.5492303979     0.9011552104     0.3469897504
Bq         1.3694783477     0.8015615972     1.0161461690
Bq         1.5749092623     0.9153828694     0.2513959763
Bq         1.3437994834     0.7873339381     1.1117399431
Bq         1.6005881266     0.9296105284     0.1558022022
Bq         1.4721938050     0.8584722333     0.6337710727
Bq         1.4428238901     0.9432272683     0.7431053863
Bq         1.4941816188     0.9716825864     0.5519178381
Bq         1.4171450258     0.9289996093     0.8386991604
Bq         1.5198604831     0.9859102454     0.4563240640
Bq         1.3914661615     0.9147719502     0.9342929345
Bq         1.5455393474     1.0001379044     0.3607302899
Bq         1.3657872971     0.9005442912     1.0298867086
Bq         1.5712182117     1.0143655634     0.2651365158
Bq         1.3401084328     0.8863166322     1.1254804827
Bq         1.5968970760     1.0285932225     0.1695427417
Bq         1.4685027544     0.9574549273     0.6475116122
Bq         1.4391328396     1.0422099623     0.7568459259
Bq         1.4904905682     1.0706652804     0.5656583777
Bq         1.4134539753     1.0279823033     0.8524397000
Bq         1.5161694325     1.0848929394     0.4700646036
Bq         1.3877751109     1.0137546443     0.9480334741
Bq         1.5418482969     1.0991205984     0.3744708295
Bq         1.3620962466     0.9995269852     1.0436272482
Bq         1.5675271612     1.1133482575     0.2788770554
Bq         1.3364173823     0.9852993262     1.1392210222
Bq         1.5932060255     1.1275759165     0.1832832813
Bq         1.4648117039     1.0564376214     0.6612521518
Bq         1.4354417890     1.1411926564     0.7705864654
Bq         1.4867995177     1.1696479744     0.5793989172
Bq         1.4097629247     1.1269649973     0.8661802395
Bq         1.5124783820     1.1838756335     0.4838051431
Bq         1.3840840604     1.1127373383     0.9617740136
Bq         1.5381572463     1.1981032925     0.3882113690
Bq         1.3584051961     1.0985096793     1.0573677877
Bq         1.5638361107     1.2123309515     0.2926175950
Bq         1.3327263318     1.0842820203     1.1529615618
Bq         1.5895149750     1.2265586105     0.1970238209
Bq         1.4611206534     1.1554203154     0.6749926913
Bq         1.4317507385     1.2401753504     0.7843270050
Bq         1.4831084672     1.2686306685     0.5931394568
Bq         1.4060718742     1.2259476914     0.8799207791
Bq         1.5087873315     1.2828583275     0.4975456827
Bq         1.3803930099     1.2117200323     0.9755145532
Bq         1.5344661958     1.2970859865     0.4019519086
Bq         1.3547141455     1.1974923733     1.0711083273
Bq         1.5601450601     1.3113136455     0.3063581345
Bq         1.3290352812     1.1832647143     1.1667021014
Bq         1.5858239244     1.3255413046     0.2107643604
Bq         1.4574296028     1.2544030094     0.6887332309
Bq         1.4280596880     1.3391580444     0.7980675445
Bq         1.4794174166     1.3676133625     0.6068799964
Bq         1.4023808236     1.3249303854     0.8936613186
Bq         1.5050962809     1.3818410215     0.5112862223
Bq         1.3767019593     1.3107027264     0.9892550927
Bq         1.5307751453     1.3960686806     0.4156924482
Bq         1.3510230950     1.2964750674     1.0848488668
Bq         1.5564540096     1.4102963396     0.3200986741
Bq         1.3253442307     1.2822474083     1.1804426409
Bq         1.5821328739     1.4245239986     0.2245049000
Bq         1.4537385523     1.3533857035     0.7024737705
Bq         1.4243686374     1.4381407385     0.8118080841
Bq         1.4757263661     1.4665960565     0.6206205359
Bq         1.3986897731     1.4239130794     0.9074018582
Bq         1.5014052304     1.4808237156     0.5250267618
Bq         1.3730109088     1.4096854204     1.0029956323
Bq         1.5270840947     1.4950513746     0.4294329877
Bq         1.3473320445     1.3954577614     1.0985894064
Bq         1.5527629590     1.5092790336     0.3338392136
Bq         1.3216531801     1.3812301024     1.1941831805
Bq         1.5784418234     1.5235066926     0.2382454395
Bq         1.4500475018     1.4523683975     0.7162143100
Bq         1.4206775869     1.5371234325     0.8255486237
Bq         1.4720353155     1.5655787506     0.6343610755
Bq         1.3949987226     1.5228957735     0.9211423978
Bq         1.4977141799     1.5798064096     0.5387673014
Bq         1.3693198583     1.5086681145     1.0167361719
Bq         1.5233930442     1.5940340686     0.4431735273
Bq         1.3436409939     1.4944404554     1.1123299459
Bq         1.5490719085     1.6082617277     0.3475797532
Bq         1.3179621296     1.4802127964     1.2079237200
Bq         1.5747507728     1.6224893867     0.2519859791
Bq         1.4463564512     1.5513510915     0.7299548496
Bq         1.4169865364     1.6361061265     0.8392891632
Bq         1.4683442650     1.6645614446     0.6481016150
Bq         1.3913076720     1.6218784675     0.9348829373
Bq         1.4940231293     1.6787891036     0.5525078409
Bq         1.3656288077     1.6076508085     1.0304767114
Bq         1.5197019937     1.6930167627     0.4569140668

1
2
3
4
5
6
7
8
9
10
11
12
13
14
15
16
17
18
19
20
21
22
23
24
25
26
27
28
29
30
31
32
33
34
35
36
37
38
39
40
41
42
43
44
45
46
47
48
49
50
51
52
53
54
55
56
57
58
59
60
61
62
63
64
65
66
67
68
69
70
71
72
73
74
75
76
77
78
79
80
81
82
83
84
85
86
87
88
89
90
91
92
93
94
95
96
97
98
99
100
101
102
103
104
105
106
107
108
109
110
111
112
113
114
115
116
117
118
119
120
121
122
123
124
125
126
127
128
129
130
131
132
133
134
135
136
137
138
139
140
141
142
143
144
145
146
147
148
149
150
151
152
153
154
155
156
157
158
159
160
161
162
163
164
165
166
167
168
169
170
171
172
173
174
175
176
177
178
179
180
181
182
183
184
185
186
187
188
189
190
191
192
193
194
195
196
197
198
199
200
201
202
203
204
205
206
207
208
209
210
211
212
213
214
215
216
217
218
219
220
221
222
223
224
225
226
227
228
229
230
231
232
233
234
235
236

