%nproc=8
%mem=1000MB
# rb3lyp/6-311+g** NMR geom=connectivity

Title

0 1
C    -4.0500558   -0.5771862    0.8136712
H    -5.0263804   -1.0082727    1.0024760
C    -3.9381552    0.6617804    0.2400876
H    -4.8252424    1.2338890   -0.0111295
C    -2.6768410    1.2433246    0.0057578
C    -1.4974121    0.5051527    0.2848253
C    -1.6508332   -0.7338728    0.9404026
H    -0.7713646   -1.2730967    1.2633753
C    -2.8898548   -1.2624035    1.1994307
H    -2.9683706   -2.2124563    1.7152676
C    -2.5773185    2.5963696   -0.4192930
H    -3.4870728    3.1412239   -0.6474055
C    -1.3741895    3.2147896   -0.4364030
H    -1.2997315    4.2742019   -0.6578144
C    -0.1719488    2.4994090   -0.1734588
C    -0.2043917    1.1018437    0.0192689
C     1.0513491    3.2042560   -0.0676222
H     1.0427344    4.2819499   -0.1896997
C     2.1942091    2.5487446    0.2579577
H     3.1168527    3.0912848    0.4334727
C     2.2216473    1.1336562    0.2934990
C     1.0486931    0.3945528    0.0302412
C     3.4483363    0.4614633    0.5573939
H     4.3095794    1.0606054    0.8334846
C     3.5427346   -0.8855926    0.4749463
H     4.4731467   -1.3939704    0.7038822
C     2.4490052   -1.6474447   -0.0196319
C     1.2150704   -1.0057258   -0.3013573
C     0.2531113   -1.7434440   -1.0216591
H    -0.6541356   -1.2535051   -1.3462847
C     0.4494193   -3.0628597   -1.3413779
H    -0.3083162   -3.5944309   -1.9054060
C     1.6251726   -3.7207967   -0.9552541
H     1.7670048   -4.7687404   -1.1927019
C     2.6109872   -3.0144177   -0.3183050
H     3.5525612   -3.4902813   -0.0646367
Bq        -3.9372313340     1.2797666459     0.3401994817
Bq        -3.9487572780     1.3534145981     0.6307904860
Bq        -3.9333893527     1.2552173286     0.2433358137
Bq        -3.9525992594     1.3779639154     0.7276541541
Bq        -3.9295473714     1.2306680112     0.1464721456
Bq        -3.9564412407     1.4025132328     0.8245178222
Bq        -3.9257053901     1.2061186938     0.0496084775
Bq        -3.9602832220     1.4270625502     0.9213814903
Bq        -3.9218634087     1.1815693764    -0.0472551906
Bq        -3.9410733154     1.3043159633     0.4370631498
Bq        -3.9439423425     1.4258051126     0.5093967885
Bq        -3.9362583798     1.3767064779     0.3156694523
Bq        -3.9477843238     1.4503544300     0.6062604566
Bq        -3.9324163985     1.3521571605     0.2188057842
Bq        -3.9516263051     1.4749037474     0.7031241247
Bq        -3.9285744172     1.3276078431     0.1219421161
Bq        -3.9554682865     1.4994530647     0.7999877928
Bq        -3.9247324358     1.3030585257     0.0250784481
Bq        -3.9593102678     1.5240023821     0.8968514609
Bq        -3.9208904545     1.2785092084    -0.0717852200
Bq        -3.9401003611     1.4012557952     0.4125331204
Bq        -3.9429693883     1.5227449446     0.4848667591
Bq        -3.9352854256     1.4736463098     0.2911394229
Bq        -3.9468113696     1.5472942619     0.5817304272
Bq        -3.9314434443     1.4490969924     0.1942757548
Bq        -3.9506533509     1.5718435793     0.6785940953
Bq        -3.9276014629     1.4245476751     0.0974120867
Bq        -3.9544953322     1.5963928967     0.7754577633
Bq        -3.9237594816     1.3999983577     0.0005484186
Bq        -3.9583373136     1.6209422141     0.8723214314
Bq        -3.9199175003     1.3754490403    -0.0963152495
Bq        -3.9391274069     1.4981956272     0.3880030910
Bq        -3.9419964340     1.6196847765     0.4603367296
Bq        -3.9343124714     1.5705861417     0.2666093935
Bq        -3.9458384154     1.6442340939     0.5572003977
Bq        -3.9304704900     1.5460368244     0.1697457254
Bq        -3.9496803967     1.6687834113     0.6540640658
Bq        -3.9266285087     1.5214875070     0.0728820573
Bq        -3.9535223780     1.6933327286     0.7509277339
Bq        -3.9227865274     1.4969381896    -0.0239816108
Bq        -3.9573643593     1.7178820460     0.8477914020
Bq        -3.9189445461     1.4723888722    -0.1208452789
Bq        -3.9381544527     1.5951354591     0.3634730616
Bq        -3.9410234798     1.7166246084     0.4358067002
Bq        -3.9333395171     1.6675259737     0.2420793640
Bq        -3.9448654611     1.7411739258     0.5326703683
Bq        -3.9294975358     1.6429766563     0.1452156959
Bq        -3.9487074425     1.7657232432     0.6295340364
Bq        -3.9256555545     1.6184273389     0.0483520279
Bq        -3.9525494238     1.7902725606     0.7263977045
Bq        -3.9218135732     1.5938780216    -0.0485116402
Bq        -3.9563914051     1.8148218779     0.8232613726
Bq        -3.9179715918     1.5693287042    -0.1453753083
Bq        -3.9371814985     1.6920752911     0.3389430321
Bq        -3.9400505256     1.8135644404     0.4112766708
Bq        -3.9323665629     1.7644658056     0.2175493346
Bq        -3.9438925069     1.8381137578     0.5081403389
Bq        -3.9285245816     1.7399164882     0.1206856665
Bq        -3.9477344882     1.8626630751     0.6050040070
Bq        -3.9246826003     1.7153671709     0.0238219984
Bq        -3.9515764696     1.8872123925     0.7018676751
Bq        -3.9208406189     1.6908178535    -0.0730416697
Bq        -3.9554184509     1.9117617099     0.7987313432
Bq        -3.9169986376     1.6662685361    -0.1699053377
Bq        -3.9362085443     1.7890151230     0.3144130027
Bq        -3.9390775714     1.9105042723     0.3867466414
Bq        -3.9313936087     1.8614056376     0.1930193052
Bq        -3.9429195527     1.9350535897     0.4836103095
Bq        -3.9275516274     1.8368563202     0.0961556371
Bq        -3.9467615340     1.9596029071     0.5804739775
Bq        -3.9237096460     1.8123070028    -0.0007080310
Bq        -3.9506035153     1.9841522244     0.6773376456
Bq        -3.9198676647     1.7877576854    -0.0975716991
Bq        -3.9544454967     2.0087015418     0.7742013137
Bq        -3.9160256834     1.7632083681    -0.1944353672
Bq        -3.9352355900     1.8859549549     0.2898829733
Bq        -3.9381046171     2.0074441043     0.3622166119
Bq        -3.9304206545     1.9583454695     0.1684892758
Bq        -3.9419465985     2.0319934216     0.4590802800
Bq        -3.9265786731     1.9337961521     0.0716256077
Bq        -3.9457885798     2.0565427390     0.5559439481
Bq        -3.9227366918     1.9092468348    -0.0252380604
Bq        -3.9496305611     2.0810920564     0.6528076162
Bq        -3.9188947105     1.8846975174    -0.1221017285
Bq        -3.9534725424     2.1056413738     0.7496712843
Bq        -3.9150527292     1.8601482000    -0.2189653966
Bq        -3.9342626358     1.9828947869     0.2653529438
Bq        -3.9371316629     2.1043839362     0.3376865825
Bq        -3.9294477002     2.0552853014     0.1439592463
Bq        -3.9409736442     2.1289332536     0.4345502506
Bq        -3.9256057189     2.0307359841     0.0470955782
Bq        -3.9448156256     2.1534825709     0.5314139187
Bq        -3.9217637376     2.0061866667    -0.0497680898
Bq        -3.9486576069     2.1780318883     0.6282775868
Bq        -3.9179217563     1.9816373493    -0.1466317579
Bq        -3.9524995882     2.2025812057     0.7251412549
Bq        -3.9140797749     1.9570880319    -0.2434954260
Bq        -3.9332896816     2.0798346188     0.2408229144
Bq        -3.9361587087     2.2013237681     0.3131565531
Bq        -3.9284747460     2.1522251334     0.1194292169
Bq        -3.9400006900     2.2258730855     0.4100202212
Bq        -3.9246327647     2.1276758160     0.0225655488
Bq        -3.9438426713     2.2504224029     0.5068838893
Bq        -3.9207907834     2.1031264986    -0.0742981193
Bq        -3.9476846527     2.2749717203     0.6037475574
Bq        -3.9169488020     2.0785771813    -0.1711617874
Bq        -3.9515266340     2.2995210376     0.7006112254
Bq        -3.9131068207     2.0540278639    -0.2680254555
Bq        -3.9323167274     2.1767744508     0.2162928850
Bq        -3.9351857545     2.2982636001     0.2886265237
Bq        -3.9275017918     2.2491649653     0.0948991875
Bq        -3.9390277358     2.3228129174     0.3854901917
Bq        -3.9236598105     2.2246156479    -0.0019644806
Bq        -3.9428697171     2.3473622348     0.4823538598
Bq        -3.9198178291     2.2000663306    -0.0988281487
Bq        -3.9467116984     2.3719115522     0.5792175279
Bq        -3.9159758478     2.1755170132    -0.1956918168
Bq        -3.9505536798     2.3964608696     0.6760811960
Bq        -3.9121338665     2.1509676958    -0.2925554849
Bq        -3.9313437731     2.2737142827     0.1917628556
Bq        -3.9342128002     2.3952034320     0.2640964942
Bq        -3.9265288376     2.3461047973     0.0703691580
Bq        -3.9380547816     2.4197527494     0.3609601623
Bq        -3.9226868562     2.3215554799    -0.0264945100
Bq        -3.9418967629     2.4443020668     0.4578238304
Bq        -3.9188448749     2.2970061625    -0.1233581781
Bq        -3.9457387442     2.4688513841     0.5546874985
Bq        -3.9150028936     2.2724568451    -0.2202218462
Bq        -3.9495807256     2.4934007015     0.6515511666
Bq        -3.9111609123     2.2479075278    -0.3170855143
Bq        -3.9303708189     2.3706541146     0.1672328261
Bq        -3.9332398460     2.4921432640     0.2395664648
Bq        -3.9255558834     2.4430446292     0.0458391286
Bq        -3.9370818273     2.5166925813     0.3364301329
Bq        -3.9217139020     2.4184953118    -0.0510245395
Bq        -3.9409238087     2.5412418987     0.4332938010
Bq        -3.9178719207     2.3939459944    -0.1478882076
Bq        -3.9447657900     2.5657912161     0.5301574691
Bq        -3.9140299394     2.3693966771    -0.2447518756
Bq        -3.9486077713     2.5903405335     0.6270211372
Bq        -3.9101879580     2.3448473597    -0.3416155437
Bq        -3.9293978647     2.4675939466     0.1427027967
Bq        -3.9322668918     2.5890830959     0.2150364354
Bq        -3.9245829291     2.5399844611     0.0213090992
Bq        -3.9361088731     2.6136324133     0.3119001035
Bq        -3.9207409478     2.5154351438    -0.0755545689
Bq        -3.9399508544     2.6381817306     0.4087637716
Bq        -3.9168989665     2.4908858264    -0.1724182370
Bq        -3.9437928358     2.6627310480     0.5056274396
Bq        -3.9130569851     2.4663365090    -0.2692819051
Bq        -3.9476348171     2.6872803654     0.6024911077
Bq        -3.9092150038     2.4417871916    -0.3661455732
Bq        -3.9284249105     2.5645337785     0.1181727673
Bq        -3.9312939376     2.6860229278     0.1905064059
Bq        -3.9236099749     2.6369242931    -0.0032209302
Bq        -3.9351359189     2.7105722452     0.2873700740
Bq        -3.9197679936     2.6123749757    -0.1000845983
Bq        -3.9389779002     2.7351215626     0.3842337421
Bq        -3.9159260122     2.5878256583    -0.1969482664
Bq        -3.9428198815     2.7596708800     0.4810974102
Bq        -3.9120840309     2.5632763409    -0.2938119345
Bq        -3.9466618629     2.7842201973     0.5779610783
Bq        -3.9082420496     2.5387270236    -0.3906756026
Bq        -3.9274519562     2.6614736105     0.0936427379
Bq        -3.9303209833     2.7829627598     0.1659763765
Bq        -3.9226370207     2.7338641250    -0.0277509597
Bq        -3.9341629647     2.8075120771     0.2628400446
Bq        -3.9187950393     2.7093148076    -0.1246146277
Bq        -3.9380049460     2.8320613945     0.3597037127
Bq        -3.9149530580     2.6847654903    -0.2214782958
Bq        -3.9418469273     2.8566107119     0.4565673808
Bq        -3.9111110767     2.6602161729    -0.3183419639
Bq        -3.9456889087     2.8811600293     0.5534310489
Bq        -3.9072690954     2.6356668555    -0.4152056320
Bq        -3.9264790020     2.7584134424     0.0691127084
Bq        -3.9293480291     2.8799025917     0.1414463471
Bq        -3.9216640665     2.8308039570    -0.0522809891
Bq        -3.9331900104     2.9044519091     0.2383100152
Bq        -3.9178220851     2.8062546396    -0.1491446572
Bq        -3.9370319918     2.9290012265     0.3351736833
Bq        -3.9139801038     2.7817053222    -0.2460083253
Bq        -3.9408739731     2.9535505438     0.4320373514
Bq        -3.9101381225     2.7571560048    -0.3428719934
Bq        -3.9447159544     2.9780998612     0.5289010195
Bq        -3.9062961411     2.7326066875    -0.4397356614
Bq        -3.9255060478     2.8553532743     0.0445826790
Bq        -3.9283750749     2.9768424236     0.1169163177
Bq        -3.9206911122     2.9277437889    -0.0768110185
Bq        -3.9322170562     3.0013917410     0.2137799858
Bq        -3.9168491309     2.9031944715    -0.1736746866
Bq        -3.9360590375     3.0259410584     0.3106436538
Bq        -3.9130071496     2.8786451541    -0.2705383547
Bq        -3.9399010189     3.0504903758     0.4075073219
Bq        -3.9091651682     2.8540958368    -0.3674020228
Bq        -3.9437430002     3.0750396931     0.5043709900
Bq        -3.9053231869     2.8295465194    -0.4642656909
Bq        -3.9245330936     2.9522931063     0.0200526496
Bq        -3.9274021207     3.0737822556     0.0923862882
Bq        -3.9197181580     3.0246836208    -0.1013410479
Bq        -3.9312441020     3.0983315730     0.1892499563

1
2
3
4
5
6
7
8
9
10
11
12
13
14
15
16
17
18
19
20
21
22
23
24
25
26
27
28
29
30
31
32
33
34
35
36
37
38
39
40
41
42
43
44
45
46
47
48
49
50
51
52
53
54
55
56
57
58
59
60
61
62
63
64
65
66
67
68
69
70
71
72
73
74
75
76
77
78
79
80
81
82
83
84
85
86
87
88
89
90
91
92
93
94
95
96
97
98
99
100
101
102
103
104
105
106
107
108
109
110
111
112
113
114
115
116
117
118
119
120
121
122
123
124
125
126
127
128
129
130
131
132
133
134
135
136
137
138
139
140
141
142
143
144
145
146
147
148
149
150
151
152
153
154
155
156
157
158
159
160
161
162
163
164
165
166
167
168
169
170
171
172
173
174
175
176
177
178
179
180
181
182
183
184
185
186
187
188
189
190
191
192
193
194
195
196
197
198
199
200
201
202
203
204
205
206
207
208
209
210
211
212
213
214
215
216
217
218
219
220
221
222
223
224
225
226
227
228
229
230
231
232
233
234
235
236

