%nproc=8
%mem=1000MB
# rb3lyp/6-311+g** NMR geom=connectivity

Title

0 1
C    -4.0500558   -0.5771862    0.8136712
H    -5.0263804   -1.0082727    1.0024760
C    -3.9381552    0.6617804    0.2400876
H    -4.8252424    1.2338890   -0.0111295
C    -2.6768410    1.2433246    0.0057578
C    -1.4974121    0.5051527    0.2848253
C    -1.6508332   -0.7338728    0.9404026
H    -0.7713646   -1.2730967    1.2633753
C    -2.8898548   -1.2624035    1.1994307
H    -2.9683706   -2.2124563    1.7152676
C    -2.5773185    2.5963696   -0.4192930
H    -3.4870728    3.1412239   -0.6474055
C    -1.3741895    3.2147896   -0.4364030
H    -1.2997315    4.2742019   -0.6578144
C    -0.1719488    2.4994090   -0.1734588
C    -0.2043917    1.1018437    0.0192689
C     1.0513491    3.2042560   -0.0676222
H     1.0427344    4.2819499   -0.1896997
C     2.1942091    2.5487446    0.2579577
H     3.1168527    3.0912848    0.4334727
C     2.2216473    1.1336562    0.2934990
C     1.0486931    0.3945528    0.0302412
C     3.4483363    0.4614633    0.5573939
H     4.3095794    1.0606054    0.8334846
C     3.5427346   -0.8855926    0.4749463
H     4.4731467   -1.3939704    0.7038822
C     2.4490052   -1.6474447   -0.0196319
C     1.2150704   -1.0057258   -0.3013573
C     0.2531113   -1.7434440   -1.0216591
H    -0.6541356   -1.2535051   -1.3462847
C     0.4494193   -3.0628597   -1.3413779
H    -0.3083162   -3.5944309   -1.9054060
C     1.6251726   -3.7207967   -0.9552541
H     1.7670048   -4.7687404   -1.1927019
C     2.6109872   -3.0144177   -0.3183050
H     3.5525612   -3.4902813   -0.0646367
Bq        -3.8442202529    -0.2234294679     0.5183858508
Bq        -3.8711141222    -0.0515842463     1.1964315275
Bq        -3.8403782716    -0.2479787853     0.4215221827
Bq        -3.8749561036    -0.0270349289     1.2932951956
Bq        -3.8365362903    -0.2725281027     0.3246585147
Bq        -3.8557461969    -0.1497815158     0.8089768551
Bq        -3.8586152240    -0.0282923665     0.8813104938
Bq        -3.8509312614    -0.0773910012     0.6875831576
Bq        -3.8624572053    -0.0037430491     0.9781741619
Bq        -3.8470892800    -0.1019403186     0.5907194895
Bq        -3.8662991867     0.0208062683     1.0750378300
Bq        -3.8432472987    -0.1264896360     0.4938558214
Bq        -3.8701411680     0.0453555857     1.1719014980
Bq        -3.8394053174    -0.1510389533     0.3969921533
Bq        -3.8739831493     0.0699049030     1.2687651661
Bq        -3.8355633360    -0.1755882707     0.3001284852
Bq        -3.8547732427    -0.0528416838     0.7844468257
Bq        -3.8576422698     0.0686474655     0.8567804643
Bq        -3.8499583071     0.0195488307     0.6630531282
Bq        -3.8614842511     0.0931967828     0.9536441324
Bq        -3.8461163258    -0.0050004867     0.5661894601
Bq        -3.8653262324     0.1177461002     1.0505078005
Bq        -3.8422743445    -0.0295498040     0.4693257920
Bq        -3.8691682138     0.1422954176     1.1473714686
Bq        -3.8384323631    -0.0540991214     0.3724621239
Bq        -3.8730101951     0.1668447350     1.2442351367
Bq        -3.8345903818    -0.0786484388     0.2755984558
Bq        -3.8538002885     0.0440981481     0.7599167963
Bq        -3.8566693156     0.1655872974     0.8322504349
Bq        -3.8489853529     0.1164886627     0.6385230987
Bq        -3.8605112969     0.1901366148     0.9291141030
Bq        -3.8451433716     0.0919393453     0.5416594306
Bq        -3.8643532782     0.2146859322     1.0259777711
Bq        -3.8413013902     0.0673900279     0.4447957626
Bq        -3.8681952596     0.2392352495     1.1228414392
Bq        -3.8374594089     0.0428407105     0.3479320945
Bq        -3.8720372409     0.2637845669     1.2197051073
Bq        -3.8336174276     0.0182913932     0.2510684264
Bq        -3.8528273342     0.1410379800     0.7353867668
Bq        -3.8556963613     0.2625271294     0.8077204055
Bq        -3.8480123987     0.2134284946     0.6139930693
Bq        -3.8595383427     0.2870764467     0.9045840736
Bq        -3.8441704174     0.1888791772     0.5171294012
Bq        -3.8633803240     0.3116257641     1.0014477417
Bq        -3.8403284360     0.1643298598     0.4202657331
Bq        -3.8672223053     0.3361750815     1.0983114098
Bq        -3.8364864547     0.1397805425     0.3234020650
Bq        -3.8710642867     0.3607243989     1.1951750779
Bq        -3.8326444734     0.1152312251     0.2265383970
Bq        -3.8518543800     0.2379778120     0.7108567374
Bq        -3.8547234071     0.3594669613     0.7831903761
Bq        -3.8470394445     0.3103683265     0.5894630399
Bq        -3.8585653884     0.3840162787     0.8800540442
Bq        -3.8431974631     0.2858190092     0.4925993718
Bq        -3.8624073698     0.4085655960     0.9769177122
Bq        -3.8393554818     0.2612696918     0.3957357037
Bq        -3.8662493511     0.4331149134     1.0737813803
Bq        -3.8355135005     0.2367203744     0.2988720356
Bq        -3.8700913324     0.4576642308     1.1706450484
Bq        -3.8316715191     0.2121710570     0.2020083675
Bq        -3.8508814258     0.3349176439     0.6863267080
Bq        -3.8537504529     0.4564067932     0.7586603466
Bq        -3.8460664902     0.4073081585     0.5649330105
Bq        -3.8575924342     0.4809561106     0.8555240147
Bq        -3.8422245089     0.3827588411     0.4680693424
Bq        -3.8614344155     0.5055054280     0.9523876828
Bq        -3.8383825276     0.3582095237     0.3712056743
Bq        -3.8652763969     0.5300547454     1.0492513509
Bq        -3.8345405462     0.3336602064     0.2743420062
Bq        -3.8691183782     0.5546040627     1.1461150190
Bq        -3.8306985649     0.3091108890     0.1774783381
Bq        -3.8499084716     0.4318574759     0.6617966785
Bq        -3.8527774987     0.5533466252     0.7341303172
Bq        -3.8450935360     0.5042479904     0.5404029810
Bq        -3.8566194800     0.5778959425     0.8309939853
Bq        -3.8412515547     0.4796986730     0.4435393129
Bq        -3.8604614613     0.6024452599     0.9278576534
Bq        -3.8374095733     0.4551493557     0.3466756448
Bq        -3.8643034427     0.6269945773     1.0247213215
Bq        -3.8335675920     0.4306000383     0.2498119768
Bq        -3.8681454240     0.6515438947     1.1215849896
Bq        -3.8297256107     0.4060507209     0.1529483087
Bq        -3.8489355173     0.5287973078     0.6372666491
Bq        -3.8518045444     0.6502864571     0.7096002878
Bq        -3.8441205818     0.6011878224     0.5158729516
Bq        -3.8556465258     0.6748357745     0.8064639559
Bq        -3.8402786005     0.5766385050     0.4190092835
Bq        -3.8594885071     0.6993850919     0.9033276240
Bq        -3.8364366191     0.5520891876     0.3221456154
Bq        -3.8633304884     0.7239344092     1.0001912921
Bq        -3.8325946378     0.5275398702     0.2252819473
Bq        -3.8671724698     0.7484837266     1.0970549601
Bq        -3.8287526565     0.5029905529     0.1284182792
Bq        -3.8479625631     0.6257371397     0.6127366197
Bq        -3.8508315902     0.7472262890     0.6850702584
Bq        -3.8431476276     0.6981276543     0.4913429222
Bq        -3.8546735715     0.7717756064     0.7819339264
Bq        -3.8393056462     0.6735783369     0.3944792541
Bq        -3.8585155529     0.7963249238     0.8787975945
Bq        -3.8354636649     0.6490290195     0.2976155860
Bq        -3.8623575342     0.8208742412     0.9756612626
Bq        -3.8316216836     0.6244797022     0.2007519179
Bq        -3.8661995155     0.8454235585     1.0725249307
Bq        -3.8277797022     0.5999303848     0.1038882498
Bq        -3.8469896089     0.7226769717     0.5882065903
Bq        -3.8498586360     0.8441661210     0.6605402289
Bq        -3.8421746733     0.7950674862     0.4668128927
Bq        -3.8537006173     0.8687154384     0.7574038970
Bq        -3.8383326920     0.7705181689     0.3699492247
Bq        -3.8575425987     0.8932647557     0.8542675651
Bq        -3.8344907107     0.7459688515     0.2730855566
Bq        -3.8613845800     0.9178140731     0.9511312332
Bq        -3.8306487293     0.7214195341     0.1762218885
Bq        -3.8652265613     0.9423633905     1.0479949013
Bq        -3.8268067480     0.6968702167     0.0793582204
Bq        -3.8460166547     0.8196168036     0.5636765608
Bq        -3.8488856818     0.9411059529     0.6360101995
Bq        -3.8412017191     0.8920073182     0.4422828633
Bq        -3.8527276631     0.9656552703     0.7328738676
Bq        -3.8373597378     0.8674580008     0.3454191952
Bq        -3.8565696444     0.9902045877     0.8297375357
Bq        -3.8335177565     0.8429086834     0.2485555271
Bq        -3.8604116258     1.0147539051     0.9266012038
Bq        -3.8296757751     0.8183593660     0.1516918591
Bq        -3.8642536071     1.0393032224     1.0234648719
Bq        -3.8258337938     0.7938100487     0.0548281910
Bq        -3.8450437004     0.9165566355     0.5391465314
Bq        -3.8479127275     1.0380457849     0.6114801701
Bq        -3.8402287649     0.9889471501     0.4177528339
Bq        -3.8517547089     1.0625951022     0.7083438382
Bq        -3.8363867836     0.9643978327     0.3208891658
Bq        -3.8555966902     1.0871444196     0.8052075063
Bq        -3.8325448022     0.9398485154     0.2240254977
Bq        -3.8594386715     1.1116937370     0.9020711743
Bq        -3.8287028209     0.9152991980     0.1271618296
Bq        -3.8632806529     1.1362430544     0.9989348424
Bq        -3.8248608396     0.8907498806     0.0302981615
Bq        -3.8440707462     1.0134964675     0.5146165020
Bq        -3.8469397733     1.1349856168     0.5869501406
Bq        -3.8392558107     1.0858869821     0.3932228045
Bq        -3.8507817546     1.1595349342     0.6838138087
Bq        -3.8354138293     1.0613376647     0.2963591364
Bq        -3.8546237360     1.1840842516     0.7806774768
Bq        -3.8315718480     1.0367883473     0.1994954683
Bq        -3.8584657173     1.2086335689     0.8775411449
Bq        -3.8277298667     1.0122390299     0.1026318002
Bq        -3.8623076986     1.2331828863     0.9744048130
Bq        -3.8238878853     0.9876897125     0.0057681321
Bq        -3.8430977920     1.1104362994     0.4900864726
Bq        -3.8459668191     1.2319254487     0.5624201112
Bq        -3.8382828564     1.1828268140     0.3686927750
Bq        -3.8498088004     1.2564747661     0.6592837793
Bq        -3.8344408751     1.1582774966     0.2718291069
Bq        -3.8536507818     1.2810240835     0.7561474474
Bq        -3.8305988938     1.1337281792     0.1749654389
Bq        -3.8574927631     1.3055734009     0.8530111155
Bq        -3.8267569124     1.1091788619     0.0781017708
Bq        -3.8613347444     1.3301227182     0.9498747836
Bq        -3.8229149311     1.0846295445    -0.0187618973
Bq        -3.8421248378     1.2073761314     0.4655564431
Bq        -3.8449938649     1.3288652807     0.5378900818
Bq        -3.8373099022     1.2797666459     0.3441627456
Bq        -3.8488358462     1.3534145981     0.6347537499
Bq        -3.8334679209     1.2552173286     0.2472990775
Bq        -3.8526778275     1.3779639154     0.7316174180
Bq        -3.8296259396     1.2306680112     0.1504354094
Bq        -3.8565198089     1.4025132328     0.8284810861
Bq        -3.8257839582     1.2061186938     0.0535717413
Bq        -3.8603617902     1.4270625502     0.9253447542
Bq        -3.8219419769     1.1815693764    -0.0432919267
Bq        -3.8411518835     1.3043159633     0.4410264137
Bq        -3.8440209106     1.4258051126     0.5133600524
Bq        -3.8363369480     1.3767064779     0.3196327162
Bq        -3.8478628920     1.4503544300     0.6102237205
Bq        -3.8324949667     1.3521571605     0.2227690481
Bq        -3.8517048733     1.4749037474     0.7070873885
Bq        -3.8286529853     1.3276078431     0.1259053800
Bq        -3.8555468546     1.4994530647     0.8039510566
Bq        -3.8248110040     1.3030585257     0.0290417119
Bq        -3.8593888360     1.5240023821     0.9008147247
Bq        -3.8209690227     1.2785092084    -0.0678219562
Bq        -3.8401789293     1.4012557952     0.4164963843
Bq        -3.8430479564     1.5227449446     0.4888300229
Bq        -3.8353639938     1.4736463098     0.2951026868
Bq        -3.8468899377     1.5472942619     0.5856936910
Bq        -3.8315220124     1.4490969924     0.1982390187
Bq        -3.8507319191     1.5718435793     0.6825573591
Bq        -3.8276800311     1.4245476751     0.1013753506
Bq        -3.8545739004     1.5963928967     0.7794210272
Bq        -3.8238380498     1.3999983577     0.0045116825
Bq        -3.8584158817     1.6209422141     0.8762846953
Bq        -3.8199960684     1.3754490403    -0.0923519856
Bq        -3.8392059751     1.4981956272     0.3919663548
Bq        -3.8420750022     1.6196847765     0.4642999935
Bq        -3.8343910395     1.5705861417     0.2705726573
Bq        -3.8459169835     1.6442340939     0.5611636616
Bq        -3.8305490582     1.5460368244     0.1737089892
Bq        -3.8497589649     1.6687834113     0.6580273297
Bq        -3.8267070769     1.5214875070     0.0768453212
Bq        -3.8536009462     1.6933327286     0.7548909978

1
2
3
4
5
6
7
8
9
10
11
12
13
14
15
16
17
18
19
20
21
22
23
24
25
26
27
28
29
30
31
32
33
34
35
36
37
38
39
40
41
42
43
44
45
46
47
48
49
50
51
52
53
54
55
56
57
58
59
60
61
62
63
64
65
66
67
68
69
70
71
72
73
74
75
76
77
78
79
80
81
82
83
84
85
86
87
88
89
90
91
92
93
94
95
96
97
98
99
100
101
102
103
104
105
106
107
108
109
110
111
112
113
114
115
116
117
118
119
120
121
122
123
124
125
126
127
128
129
130
131
132
133
134
135
136
137
138
139
140
141
142
143
144
145
146
147
148
149
150
151
152
153
154
155
156
157
158
159
160
161
162
163
164
165
166
167
168
169
170
171
172
173
174
175
176
177
178
179
180
181
182
183
184
185
186
187
188
189
190
191
192
193
194
195
196
197
198
199
200
201
202
203
204
205
206
207
208
209
210
211
212
213
214
215
216
217
218
219
220
221
222
223
224
225
226
227
228
229
230
231
232
233
234
235
236

