%nproc=8
%mem=1000MB
# rb3lyp/6-311+g** NMR geom=connectivity

Title

0 1
C    -4.0500558   -0.5771862    0.8136712
H    -5.0263804   -1.0082727    1.0024760
C    -3.9381552    0.6617804    0.2400876
H    -4.8252424    1.2338890   -0.0111295
C    -2.6768410    1.2433246    0.0057578
C    -1.4974121    0.5051527    0.2848253
C    -1.6508332   -0.7338728    0.9404026
H    -0.7713646   -1.2730967    1.2633753
C    -2.8898548   -1.2624035    1.1994307
H    -2.9683706   -2.2124563    1.7152676
C    -2.5773185    2.5963696   -0.4192930
H    -3.4870728    3.1412239   -0.6474055
C    -1.3741895    3.2147896   -0.4364030
H    -1.2997315    4.2742019   -0.6578144
C    -0.1719488    2.4994090   -0.1734588
C    -0.2043917    1.1018437    0.0192689
C     1.0513491    3.2042560   -0.0676222
H     1.0427344    4.2819499   -0.1896997
C     2.1942091    2.5487446    0.2579577
H     3.1168527    3.0912848    0.4334727
C     2.2216473    1.1336562    0.2934990
C     1.0486931    0.3945528    0.0302412
C     3.4483363    0.4614633    0.5573939
H     4.3095794    1.0606054    0.8334846
C     3.5427346   -0.8855926    0.4749463
H     4.4731467   -1.3939704    0.7038822
C     2.4490052   -1.6474447   -0.0196319
C     1.2150704   -1.0057258   -0.3013573
C     0.2531113   -1.7434440   -1.0216591
H    -0.6541356   -1.2535051   -1.3462847
C     0.4494193   -3.0628597   -1.3413779
H    -0.3083162   -3.5944309   -1.9054060
C     1.6251726   -3.7207967   -0.9552541
H     1.7670048   -4.7687404   -1.1927019
C     2.6109872   -3.0144177   -0.3183050
H     3.5525612   -3.4902813   -0.0646367
Bq         2.0244323391    -2.7081916837    -0.2672941386
Bq         1.7453999926    -2.8945012414     0.3470589344
Bq         2.0642941029    -2.6815760326    -0.3550588633
Bq         1.7055382288    -2.9211168925     0.4348236592
Bq         2.1041558666    -2.6549603815    -0.4428235880
Bq         1.9048470477    -2.7880386370    -0.0039999644
Bq         1.8539788105    -2.7182613054     0.1079980108
Bq         1.9337023381    -2.6650300032    -0.0675314387
Bq         1.8141170468    -2.7448769565     0.1957627355
Bq         1.9735641019    -2.6384143521    -0.1552961634
Bq         1.7742552830    -2.7714926076     0.2835274602
Bq         2.0134258657    -2.6117987010    -0.2430608881
Bq         1.7343935192    -2.7981082587     0.3712921849
Bq         2.0532876295    -2.5851830499    -0.3308256128
Bq         1.6945317554    -2.8247239098     0.4590569096
Bq         2.0931493933    -2.5585673988    -0.4185903375
Bq         1.8938405743    -2.6916456543     0.0202332860
Bq         1.8429723372    -2.6218683227     0.1322312612
Bq         1.9226958647    -2.5686370205    -0.0432981882
Bq         1.8031105734    -2.6484839738     0.2199959859
Bq         1.9625576285    -2.5420213694    -0.1310629129
Bq         1.7632488096    -2.6750996249     0.3077607106
Bq         2.0024193923    -2.5154057183    -0.2188276376
Bq         1.7233870458    -2.7017152760     0.3955254354
Bq         2.0422811561    -2.4887900672    -0.3065923623
Bq         1.6835252820    -2.7283309271     0.4832901601
Bq         2.0821429199    -2.4621744160    -0.3943570871
Bq         1.8828341010    -2.5952526716     0.0444665365
Bq         1.8319658638    -2.5254753400     0.1564645117
Bq         1.9116893914    -2.4722440378    -0.0190649378
Bq         1.7921041000    -2.5520909911     0.2442292364
Bq         1.9515511552    -2.4456283867    -0.1068296625
Bq         1.7522423362    -2.5787066422     0.3319939611
Bq         1.9914129190    -2.4190127355    -0.1945943872
Bq         1.7123805724    -2.6053222933     0.4197586858
Bq         2.0312746827    -2.3923970844    -0.2823591119
Bq         1.6725188087    -2.6319379444     0.5075234105
Bq         2.0711364465    -2.3657814333    -0.3701238366
Bq         1.8718276276    -2.4988596889     0.0686997870
Bq         1.8209593904    -2.4290823573     0.1806977621
Bq         1.9006829180    -2.3758510550     0.0051683127
Bq         1.7810976266    -2.4556980084     0.2684624868
Bq         1.9405446818    -2.3492354039    -0.0825964120
Bq         1.7412358629    -2.4823136595     0.3562272116
Bq         1.9804064456    -2.3226197528    -0.1703611367
Bq         1.7013740991    -2.5089293106     0.4439919363
Bq         2.0202682094    -2.2960041017    -0.2581258614
Bq         1.6615123353    -2.5355449617     0.5317566610
Bq         2.0601299732    -2.2693884506    -0.3458905861
Bq         1.8608211542    -2.4024667062     0.0929330374
Bq         1.8099529171    -2.3326893746     0.2049310126
Bq         1.8896764446    -2.2794580723     0.0294015632
Bq         1.7700911533    -2.3593050257     0.2926957373
Bq         1.9295382084    -2.2528424212    -0.0583631615
Bq         1.7302293895    -2.3859206768     0.3804604620
Bq         1.9693999722    -2.2262267701    -0.1461278863
Bq         1.6903676257    -2.4125363279     0.4682251867
Bq         2.0092617360    -2.1996111190    -0.2338926110
Bq         1.6505058619    -2.4391519790     0.5559899114
Bq         2.0491234998    -2.1729954679    -0.3216573357
Bq         1.8498146808    -2.3060737234     0.1171662879
Bq         1.7989464437    -2.2362963918     0.2291642630
Bq         1.8786699713    -2.1830650896     0.0536348136
Bq         1.7590846799    -2.2629120429     0.3169289878
Bq         1.9185317350    -2.1564494385    -0.0341299111
Bq         1.7192229161    -2.2895276941     0.4046937125
Bq         1.9583934988    -2.1298337874    -0.1218946358
Bq         1.6793611523    -2.3161433452     0.4924584372
Bq         1.9982552626    -2.1032181363    -0.2096593605
Bq         1.6394993885    -2.3427589963     0.5802231619
Bq         2.0381170264    -2.0766024852    -0.2974240852
Bq         1.8388082075    -2.2096807407     0.1413995383
Bq         1.7879399703    -2.1399034091     0.2533975135
Bq         1.8676634979    -2.0866721069     0.0778680641
Bq         1.7480782065    -2.1665190602     0.3411622382
Bq         1.9075252617    -2.0600564558    -0.0098966606
Bq         1.7082164427    -2.1931347113     0.4289269629
Bq         1.9473870255    -2.0334408047    -0.0976613853
Bq         1.6683546790    -2.2197503624     0.5166916876
Bq         1.9872487893    -2.0068251536    -0.1854261101
Bq         1.6284929152    -2.2463660136     0.6044564124
Bq         2.0271105530    -1.9802095025    -0.2731908348
Bq         1.8278017341    -2.1132877580     0.1656327888
Bq         1.7769334969    -2.0435104264     0.2776307640
Bq         1.8566570245    -1.9902791242     0.1021013145
Bq         1.7370717332    -2.0701260775     0.3653954887
Bq         1.8965187883    -1.9636634731     0.0143365898
Bq         1.6972099694    -2.0967417286     0.4531602134
Bq         1.9363805521    -1.9370478220    -0.0734281349
Bq         1.6573482056    -2.1233573797     0.5409249381
Bq         1.9762423159    -1.9104321709    -0.1611928596
Bq         1.6174864418    -2.1499730308     0.6286896628
Bq         2.0161040797    -1.8838165198    -0.2489575843
Bq         1.8167952607    -2.0168947753     0.1898660393
Bq         1.7659270236    -1.9471174437     0.3018640144
Bq         1.8456505511    -1.8938861415     0.1263345650
Bq         1.7260652598    -1.9737330948     0.3896287391
Bq         1.8855123149    -1.8672704904     0.0385698403
Bq         1.6862034960    -2.0003487459     0.4773934638
Bq         1.9253740787    -1.8406548393    -0.0491948844
Bq         1.6463417322    -2.0269643970     0.5651581886
Bq         1.9652358425    -1.8140391882    -0.1369596091
Bq         1.6064799684    -2.0535800481     0.6529229133
Bq         2.0050976063    -1.7874235371    -0.2247243339
Bq         1.8057887874    -1.9205017926     0.2140992897
Bq         1.7549205502    -1.8507244610     0.3260972649
Bq         1.8346440778    -1.7974931588     0.1505678155
Bq         1.7150587864    -1.8773401121     0.4138619896
Bq         1.8745058416    -1.7708775077     0.0628030907
Bq         1.6751970226    -1.9039557632     0.5016267143
Bq         1.9143676053    -1.7442618566    -0.0249616340
Bq         1.6353352588    -1.9305714143     0.5893914390
Bq         1.9542293691    -1.7176462055    -0.1127263587
Bq         1.5954734950    -1.9571870654     0.6771561637
Bq         1.9940911329    -1.6910305543    -0.2004910834
Bq         1.7947823140    -1.8241088099     0.2383325402
Bq         1.7439140768    -1.7543314783     0.3503305153
Bq         1.8236376044    -1.7011001761     0.1748010659
Bq         1.7040523130    -1.7809471294     0.4380952401
Bq         1.8634993682    -1.6744845250     0.0870363412
Bq         1.6641905493    -1.8075627805     0.5258599648
Bq         1.9033611320    -1.6478688739    -0.0007283835
Bq         1.6243287855    -1.8341784316     0.6136246895
Bq         1.9432228958    -1.6212532227    -0.0884931082
Bq         1.5844670217    -1.8607940827     0.7013894142
Bq         1.9830846596    -1.5946375716    -0.1762578329
Bq         1.7837758406    -1.7277158272     0.2625657906
Bq         1.7329076035    -1.6579384956     0.3745637658
Bq         1.8126311310    -1.6047071934     0.1990343164
Bq         1.6930458397    -1.6845541467     0.4623284905
Bq         1.8524928948    -1.5780915422     0.1112695917
Bq         1.6531840759    -1.7111697978     0.5500932152
Bq         1.8923546586    -1.5514758911     0.0235048669
Bq         1.6133223121    -1.7377854489     0.6378579399
Bq         1.9322164224    -1.5248602400    -0.0642598578
Bq         1.5734605483    -1.7644011000     0.7256226646
Bq         1.9720781862    -1.4982445889    -0.1520245825
Bq         1.7727693672    -1.6313228445     0.2867990411
Bq         1.7219011301    -1.5615455129     0.3987970163
Bq         1.8016246577    -1.5083142106     0.2232675668
Bq         1.6820393663    -1.5881611640     0.4865617410
Bq         1.8414864214    -1.4816985595     0.1355028421
Bq         1.6421776025    -1.6147768151     0.5743264657
Bq         1.8813481852    -1.4550829084     0.0477381174
Bq         1.6023158387    -1.6413924662     0.6620911904
Bq         1.9212099490    -1.4284672573    -0.0400266073
Bq         1.5624540749    -1.6680081173     0.7498559151
Bq         1.9610717128    -1.4018516062    -0.1277913320
Bq         1.7617628939    -1.5349298617     0.3110322915
Bq         1.7108946567    -1.4651525301     0.4230302667
Bq         1.7906181843    -1.4119212279     0.2475008173
Bq         1.6710328929    -1.4917681812     0.5107949914
Bq         1.8304799481    -1.3853055768     0.1597360926
Bq         1.6311711291    -1.5183838324     0.5985597161
Bq         1.8703417119    -1.3586899257     0.0719713679
Bq         1.5913093653    -1.5449994835     0.6863244409
Bq         1.9102034756    -1.3320742746    -0.0157933569
Bq         1.5514476016    -1.5716151346     0.7740891656
Bq         1.9500652394    -1.3054586235    -0.1035580816
Bq         1.7507564205    -1.4385368790     0.3352655420
Bq         1.6998881833    -1.3687595474     0.4472635172
Bq         1.7796117109    -1.3155282452     0.2717340677
Bq         1.6600264196    -1.3953751985     0.5350282419
Bq         1.8194734747    -1.2889125941     0.1839693430
Bq         1.6201646558    -1.4219908496     0.6227929666
Bq         1.8593352385    -1.2622969430     0.0962046183
Bq         1.5803028920    -1.4486065008     0.7105576913
Bq         1.8991970023    -1.2356812919     0.0084398936
Bq         1.5404411282    -1.4752221519     0.7983224160
Bq         1.9390587661    -1.2090656408    -0.0793248311
Bq         1.7397499471    -1.3421438963     0.3594987925
Bq         1.6888817100    -1.2723665647     0.4714967676
Bq         1.7686052375    -1.2191352625     0.2959673182
Bq         1.6490199462    -1.2989822158     0.5592614923
Bq         1.8084670013    -1.1925196114     0.2082025935
Bq         1.6091581824    -1.3255978669     0.6470262171
Bq         1.8483287651    -1.1659039603     0.1204378688
Bq         1.5692964186    -1.3522135180     0.7347909418
Bq         1.8881905289    -1.1392883092     0.0326731441
Bq         1.5294346548    -1.3788291691     0.8225556665
Bq         1.9280522927    -1.1126726581    -0.0550915806
Bq         1.7287434738    -1.2457509136     0.3837320429
Bq         1.6778752366    -1.1759735820     0.4957300181
Bq         1.7575987642    -1.1227422798     0.3202005687
Bq         1.6380134728    -1.2025892331     0.5834947428
Bq         1.7974605280    -1.0961266287     0.2324358439
Bq         1.5981517090    -1.2292048842     0.6712594675
Bq         1.8373222917    -1.0695109776     0.1446711192
Bq         1.5582899452    -1.2558205353     0.7590241922
Bq         1.8771840555    -1.0428953265     0.0569063945
Bq         1.5184281814    -1.2824361864     0.8467889169
Bq         1.9170458193    -1.0162796754    -0.0308583302
Bq         1.7177370004    -1.1493579309     0.4079652934
Bq         1.6668687632    -1.0795805993     0.5199632685
Bq         1.7465922908    -1.0263492971     0.3444338191
Bq         1.6270069994    -1.1061962504     0.6077279933
Bq         1.7864540546    -0.9997336460     0.2566690944
Bq         1.5871452356    -1.1328119015     0.6954927180
Bq         1.8263158184    -0.9731179949     0.1689043697
Bq         1.5472834719    -1.1594275526     0.7832574427

1
2
3
4
5
6
7
8
9
10
11
12
13
14
15
16
17
18
19
20
21
22
23
24
25
26
27
28
29
30
31
32
33
34
35
36
37
38
39
40
41
42
43
44
45
46
47
48
49
50
51
52
53
54
55
56
57
58
59
60
61
62
63
64
65
66
67
68
69
70
71
72
73
74
75
76
77
78
79
80
81
82
83
84
85
86
87
88
89
90
91
92
93
94
95
96
97
98
99
100
101
102
103
104
105
106
107
108
109
110
111
112
113
114
115
116
117
118
119
120
121
122
123
124
125
126
127
128
129
130
131
132
133
134
135
136
137
138
139
140
141
142
143
144
145
146
147
148
149
150
151
152
153
154
155
156
157
158
159
160
161
162
163
164
165
166
167
168
169
170
171
172
173
174
175
176
177
178
179
180
181
182
183
184
185
186
187
188
189
190
191
192
193
194
195
196
197
198
199
200
201
202
203
204
205
206
207
208
209
210
211
212
213
214
215
216
217
218
219
220
221
222
223
224
225
226
227
228
229
230
231
232
233
234
235
236

