%nproc=8
%mem=1000MB
# rb3lyp/6-311+g** NMR geom=connectivity

Title

0 1
C    -4.0500558   -0.5771862    0.8136712
H    -5.0263804   -1.0082727    1.0024760
C    -3.9381552    0.6617804    0.2400876
H    -4.8252424    1.2338890   -0.0111295
C    -2.6768410    1.2433246    0.0057578
C    -1.4974121    0.5051527    0.2848253
C    -1.6508332   -0.7338728    0.9404026
H    -0.7713646   -1.2730967    1.2633753
C    -2.8898548   -1.2624035    1.1994307
H    -2.9683706   -2.2124563    1.7152676
C    -2.5773185    2.5963696   -0.4192930
H    -3.4870728    3.1412239   -0.6474055
C    -1.3741895    3.2147896   -0.4364030
H    -1.2997315    4.2742019   -0.6578144
C    -0.1719488    2.4994090   -0.1734588
C    -0.2043917    1.1018437    0.0192689
C     1.0513491    3.2042560   -0.0676222
H     1.0427344    4.2819499   -0.1896997
C     2.1942091    2.5487446    0.2579577
H     3.1168527    3.0912848    0.4334727
C     2.2216473    1.1336562    0.2934990
C     1.0486931    0.3945528    0.0302412
C     3.4483363    0.4614633    0.5573939
H     4.3095794    1.0606054    0.8334846
C     3.5427346   -0.8855926    0.4749463
H     4.4731467   -1.3939704    0.7038822
C     2.4490052   -1.6474447   -0.0196319
C     1.2150704   -1.0057258   -0.3013573
C     0.2531113   -1.7434440   -1.0216591
H    -0.6541356   -1.2535051   -1.3462847
C     0.4494193   -3.0628597   -1.3413779
H    -0.3083162   -3.5944309   -1.9054060
C     1.6251726   -3.7207967   -0.9552541
H     1.7670048   -4.7687404   -1.1927019
C     2.6109872   -3.0144177   -0.3183050
H     3.5525612   -3.4902813   -0.0646367
Bq        -0.5373200567    -0.1156507722    -0.1888321423
Bq        -0.4575965291    -0.0624194700    -0.3643615918
Bq        -0.5771818205    -0.1422664233    -0.1010674176
Bq        -0.4177347653    -0.0358038189    -0.4521263165
Bq        -0.6170435843    -0.1688820744    -0.0133026929
Bq        -0.3778730016    -0.0091881677    -0.5398910412
Bq        -0.6569053481    -0.1954977255     0.0744620318
Bq        -0.3380112378     0.0174274834    -0.6276557659
Bq        -0.6967671119    -0.2221133766     0.1622267565
Bq        -0.2981494740     0.0440431345    -0.7154204906
Bq        -0.4974582929    -0.0890351211    -0.2765968670
Bq         0.1040524852    -4.9352999078    -1.3591412776
Bq         0.1837760128    -4.8820686056    -1.5346707270
Bq         0.0641907214    -4.9619155589    -1.2713765529
Bq         0.2236377766    -4.8554529545    -1.6224354517
Bq         0.0243289576    -4.9885312100    -1.1836118282
Bq         0.2634995404    -4.8288373034    -1.7102001765
Bq        -0.0155328062    -5.0151468611    -1.0958471035
Bq         0.3033613041    -4.8022216522    -1.7979649012
Bq        -0.0553945699    -5.0417625122    -1.0080823787
Bq         0.3432230679    -4.7756060011    -1.8857296259
Bq         0.1439142490    -4.9086842567    -1.4469060023
Bq         0.0930460118    -4.8389069251    -1.3349080271
Bq         0.1727695394    -4.7856756229    -1.5104374766
Bq         0.0531842480    -4.8655225762    -1.2471433024
Bq         0.2126313032    -4.7590599717    -1.5982022013
Bq         0.0133224843    -4.8921382273    -1.1593785777
Bq         0.2524930670    -4.7324443206    -1.6859669260
Bq        -0.0265392795    -4.9187538784    -1.0716138530
Bq         0.2923548308    -4.7058286695    -1.7737316507
Bq        -0.0664010433    -4.9453695295    -0.9838491283
Bq         0.3322165946    -4.6792130184    -1.8614963754
Bq         0.1329077756    -4.8122912740    -1.4226727519
Bq         0.0820395385    -4.7425139424    -1.3106747767
Bq         0.1617630660    -4.6892826401    -1.4862042261
Bq         0.0421777747    -4.7691295935    -1.2229100520
Bq         0.2016248298    -4.6626669890    -1.5739689508
Bq         0.0023160109    -4.7957452446    -1.1351453273
Bq         0.2414865936    -4.6360513379    -1.6617336755
Bq        -0.0375457529    -4.8223608957    -1.0473806025
Bq         0.2813483574    -4.6094356868    -1.7494984002
Bq        -0.0774075167    -4.8489765468    -0.9596158778
Bq         0.3212101212    -4.5828200357    -1.8372631250
Bq         0.1219013023    -4.7158982912    -1.3984395014
Bq         0.0710330651    -4.6461209596    -1.2864415262
Bq         0.1507565927    -4.5928896574    -1.4619709757
Bq         0.0311713013    -4.6727366108    -1.1986768015
Bq         0.1906183565    -4.5662740063    -1.5497357004
Bq        -0.0086904625    -4.6993522619    -1.1109120768
Bq         0.2304801202    -4.5396583552    -1.6375004251
Bq        -0.0485522263    -4.7259679130    -1.0231473521
Bq         0.2703418840    -4.5130427041    -1.7252651498
Bq        -0.0884139901    -4.7525835641    -0.9353826274
Bq         0.3102036478    -4.4864270530    -1.8130298745
Bq         0.1108948289    -4.6195053085    -1.3742062509
Bq         0.0600265917    -4.5497279769    -1.2622082758
Bq         0.1397501193    -4.4964966747    -1.4377377252
Bq         0.0201648279    -4.5763436280    -1.1744435511
Bq         0.1796118831    -4.4698810236    -1.5255024499
Bq        -0.0196969359    -4.6029592791    -1.0866788263
Bq         0.2194736469    -4.4432653725    -1.6132671746
Bq        -0.0595586996    -4.6295749303    -0.9989141016
Bq         0.2593354107    -4.4166497214    -1.7010318993
Bq        -0.0994204634    -4.6561905814    -0.9111493769
Bq         0.2991971744    -4.3900340703    -1.7887966240
Bq         0.0998883555    -4.5231123258    -1.3499730005
Bq         0.0490201183    -4.4533349942    -1.2379750253
Bq         0.1287436459    -4.4001036920    -1.4135044747
Bq         0.0091583546    -4.4799506453    -1.1502103006
Bq         0.1686054097    -4.3734880409    -1.5012691994
Bq        -0.0307034092    -4.5065662964    -1.0624455759
Bq         0.2084671735    -4.3468723898    -1.5890339242
Bq        -0.0705651730    -4.5331819475    -0.9746808512
Bq         0.2483289373    -4.3202567387    -1.6767986489
Bq        -0.1104269368    -4.5597975986    -0.8869161265
Bq         0.2881907011    -4.2936410876    -1.7645633736
Bq         0.0888818821    -4.4267193431    -1.3257397500
Bq         0.0380136450    -4.3569420115    -1.2137417749
Bq         0.1177371726    -4.3037107093    -1.3892712243
Bq        -0.0018481188    -4.3835576626    -1.1259770501
Bq         0.1575989363    -4.2770950582    -1.4770359490
Bq        -0.0417098826    -4.4101733137    -1.0382123254
Bq         0.1974607001    -4.2504794071    -1.5648006737
Bq        -0.0815716464    -4.4367889648    -0.9504476007
Bq         0.2373224639    -4.2238637560    -1.6525653984
Bq        -0.1214334102    -4.4634046159    -0.8626828760
Bq         0.2771842277    -4.1972481049    -1.7403301231
Bq         0.0778754088    -4.3303263604    -1.3015064996
Bq         0.0270071716    -4.2605490288    -1.1895085244
Bq         0.1067306992    -4.2073177266    -1.3650379738
Bq        -0.0128545922    -4.2871646799    -1.1017437997
Bq         0.1465924630    -4.1807020755    -1.4528026985
Bq        -0.0527163560    -4.3137803310    -1.0139790750
Bq         0.1864542268    -4.1540864244    -1.5405674232
Bq        -0.0925781198    -4.3403959821    -0.9262143503
Bq         0.2263159905    -4.1274707733    -1.6283321480
Bq        -0.1324398835    -4.3670116332    -0.8384496255
Bq         0.2661777543    -4.1008551222    -1.7160968727
Bq         0.0668689354    -4.2339333777    -1.2772732491
Bq         0.0160006982    -4.1641560461    -1.1652752739
Bq         0.0957242258    -4.1109247439    -1.3408047234
Bq        -0.0238610656    -4.1907716972    -1.0775105492
Bq         0.1355859896    -4.0843090928    -1.4285694481
Bq        -0.0637228293    -4.2173873483    -0.9897458245
Bq         0.1754477534    -4.0576934417    -1.5163341728
Bq        -0.1035845931    -4.2440029994    -0.9019810998
Bq         0.2153095172    -4.0310777905    -1.6040988975
Bq        -0.1434463569    -4.2706186505    -0.8142163751
Bq         0.2551712810    -4.0044621394    -1.6918636222
Bq         0.0558624620    -4.1375403950    -1.2530399986
Bq         0.0049942249    -4.0677630634    -1.1410420235
Bq         0.0847177524    -4.0145317612    -1.3165714729
Bq        -0.0348675389    -4.0943787145    -1.0532772988
Bq         0.1245795162    -3.9879161100    -1.4043361976
Bq        -0.0747293027    -4.1209943656    -0.9655125741
Bq         0.1644412800    -3.9613004589    -1.4921009223
Bq        -0.1145910665    -4.1476100167    -0.8777478493
Bq         0.2043030438    -3.9346848078    -1.5798656470
Bq        -0.1544528303    -4.1742256678    -0.7899831246
Bq         0.2441648076    -3.9080691567    -1.6676303718
Bq         0.0448559886    -4.0411474123    -1.2288067482
Bq        -0.0060122485    -3.9713700807    -1.1168087730
Bq         0.0737112791    -3.9181387784    -1.2923382224
Bq        -0.0458740123    -3.9979857318    -1.0290440483
Bq         0.1135730428    -3.8915231273    -1.3801029472
Bq        -0.0857357761    -4.0246013829    -0.9412793236
Bq         0.1534348066    -3.8649074762    -1.4678676719
Bq        -0.1255975399    -4.0512170340    -0.8535145989
Bq         0.1932965704    -3.8382918251    -1.5556323966
Bq        -0.1654593037    -4.0778326851    -0.7657498742
Bq         0.2331583342    -3.8116761740    -1.6433971213
Bq         0.0338495153    -3.9447544296    -1.2045734977
Bq        -0.0170187219    -3.8749770979    -1.0925755226
Bq         0.0627048057    -3.8217457957    -1.2681049720
Bq        -0.0568804857    -3.9015927491    -1.0048107978
Bq         0.1025665695    -3.7951301446    -1.3558696967
Bq        -0.0967422495    -3.9282084002    -0.9170460731
Bq         0.1424283333    -3.7685144935    -1.4436344214
Bq        -0.1366040132    -3.9548240513    -0.8292813484
Bq         0.1822900971    -3.7418988424    -1.5313991461
Bq        -0.1764657770    -3.9814397024    -0.7415166237
Bq         0.2221518608    -3.7152831913    -1.6191638708
Bq         0.0228430419    -3.8483614468    -1.1803402473
Bq        -0.0280251953    -3.7785841152    -1.0683422721
Bq         0.0516983323    -3.7253528130    -1.2438717215
Bq        -0.0678869590    -3.8051997663    -0.9805775474
Bq         0.0915600961    -3.6987371619    -1.3316364462
Bq        -0.1077487228    -3.8318154174    -0.8928128227
Bq         0.1314218599    -3.6721215108    -1.4194011710
Bq        -0.1476104866    -3.8584310686    -0.8050480980
Bq         0.1712836237    -3.6455058597    -1.5071658957
Bq        -0.1874722504    -3.8850467197    -0.7172833733
Bq         0.2111453875    -3.6188902086    -1.5949306204
Bq         0.0118365685    -3.7519684641    -1.1561069968
Bq        -0.0390316686    -3.6821911325    -1.0441090216
Bq         0.0406918589    -3.6289598303    -1.2196384711
Bq        -0.0788934324    -3.7088067836    -0.9563442969
Bq         0.0805536227    -3.6023441792    -1.3074031958
Bq        -0.1187551962    -3.7354224347    -0.8685795722
Bq         0.1204153865    -3.5757285281    -1.3951679205
Bq        -0.1586169600    -3.7620380858    -0.7808148475
Bq         0.1602771503    -3.5491128770    -1.4829326452
Bq        -0.1984787238    -3.7886537369    -0.6930501228
Bq         0.2001389141    -3.5224972259    -1.5706973699
Bq         0.0008300952    -3.6555754814    -1.1318737464
Bq        -0.0500381420    -3.5857981498    -1.0198757712
Bq         0.0296853856    -3.5325668476    -1.1954052206
Bq        -0.0898999058    -3.6124138009    -0.9321110465
Bq         0.0695471494    -3.5059511965    -1.2831699453
Bq        -0.1297616696    -3.6390294520    -0.8443463218
Bq         0.1094089131    -3.4793355454    -1.3709346700
Bq        -0.1696234334    -3.6656451031    -0.7565815970
Bq         0.1492706769    -3.4527198943    -1.4586993948
Bq        -0.2094851972    -3.6922607542    -0.6688168723
Bq         0.1891324407    -3.4261042432    -1.5464641195
Bq        -0.0101763782    -3.5591824987    -1.1076404959
Bq        -0.0610446154    -3.4894051671    -0.9956425207
Bq         0.0186789122    -3.4361738649    -1.1711719702
Bq        -0.1009063792    -3.5160208182    -0.9078777960
Bq         0.0585406760    -3.4095582138    -1.2589366949
Bq        -0.1407681429    -3.5426364693    -0.8201130713
Bq         0.0984024398    -3.3829425627    -1.3467014196
Bq        -0.1806299067    -3.5692521204    -0.7323483466
Bq         0.1382642036    -3.3563269116    -1.4344661443
Bq        -0.2204916705    -3.5958677715    -0.6445836219
Bq         0.1781259674    -3.3297112605    -1.5222308690
Bq        -0.0211828516    -3.4627895160    -1.0834072454
Bq        -0.0720510887    -3.3930121844    -0.9714092703
Bq         0.0076724388    -3.3397808822    -1.1469387197
Bq        -0.1119128525    -3.4196278355    -0.8836445456
Bq         0.0475342026    -3.3131652311    -1.2347034444
Bq        -0.1517746163    -3.4462434866    -0.7958798208
Bq         0.0873959664    -3.2865495800    -1.3224681691
Bq        -0.1916363801    -3.4728591377    -0.7081150961
Bq         0.1272577302    -3.2599339288    -1.4102328938
Bq        -0.2314981439    -3.4994747888    -0.6203503714
Bq         0.1671194940    -3.2333182777    -1.4979976185
Bq        -0.0321893250    -3.3663965333    -1.0591739950
Bq        -0.0830575621    -3.2966192017    -0.9471760198
Bq        -0.0033340345    -3.2433878995    -1.1227054692

1
2
3
4
5
6
7
8
9
10
11
12
13
14
15
16
17
18
19
20
21
22
23
24
25
26
27
28
29
30
31
32
33
34
35
36
37
38
39
40
41
42
43
44
45
46
47
48
49
50
51
52
53
54
55
56
57
58
59
60
61
62
63
64
65
66
67
68
69
70
71
72
73
74
75
76
77
78
79
80
81
82
83
84
85
86
87
88
89
90
91
92
93
94
95
96
97
98
99
100
101
102
103
104
105
106
107
108
109
110
111
112
113
114
115
116
117
118
119
120
121
122
123
124
125
126
127
128
129
130
131
132
133
134
135
136
137
138
139
140
141
142
143
144
145
146
147
148
149
150
151
152
153
154
155
156
157
158
159
160
161
162
163
164
165
166
167
168
169
170
171
172
173
174
175
176
177
178
179
180
181
182
183
184
185
186
187
188
189
190
191
192
193
194
195
196
197
198
199
200
201
202
203
204
205
206
207
208
209
210
211
212
213
214
215
216
217
218
219
220
221
222
223
224
225
226
227
228
229
230
231
232
233
234
235
236

