%nproc=8
%mem=1000MB
# rb3lyp/6-311+g** NMR geom=connectivity

Title

0 1
C    -4.0500558   -0.5771862    0.8136712
H    -5.0263804   -1.0082727    1.0024760
C    -3.9381552    0.6617804    0.2400876
H    -4.8252424    1.2338890   -0.0111295
C    -2.6768410    1.2433246    0.0057578
C    -1.4974121    0.5051527    0.2848253
C    -1.6508332   -0.7338728    0.9404026
H    -0.7713646   -1.2730967    1.2633753
C    -2.8898548   -1.2624035    1.1994307
H    -2.9683706   -2.2124563    1.7152676
C    -2.5773185    2.5963696   -0.4192930
H    -3.4870728    3.1412239   -0.6474055
C    -1.3741895    3.2147896   -0.4364030
H    -1.2997315    4.2742019   -0.6578144
C    -0.1719488    2.4994090   -0.1734588
C    -0.2043917    1.1018437    0.0192689
C     1.0513491    3.2042560   -0.0676222
H     1.0427344    4.2819499   -0.1896997
C     2.1942091    2.5487446    0.2579577
H     3.1168527    3.0912848    0.4334727
C     2.2216473    1.1336562    0.2934990
C     1.0486931    0.3945528    0.0302412
C     3.4483363    0.4614633    0.5573939
H     4.3095794    1.0606054    0.8334846
C     3.5427346   -0.8855926    0.4749463
H     4.4731467   -1.3939704    0.7038822
C     2.4490052   -1.6474447   -0.0196319
C     1.2150704   -1.0057258   -0.3013573
C     0.2531113   -1.7434440   -1.0216591
H    -0.6541356   -1.2535051   -1.3462847
C     0.4494193   -3.0628597   -1.3413779
H    -0.3083162   -3.5944309   -1.9054060
C     1.6251726   -3.7207967   -0.9552541
H     1.7670048   -4.7687404   -1.1927019
C     2.6109872   -3.0144177   -0.3183050
H     3.5525612   -3.4902813   -0.0646367
Bq         1.0497348087    -0.1753584821    -0.0558214524
Bq         0.6909789346    -0.4148993420     0.7340610700
Bq         1.0895965725    -0.1487428310    -0.1435861771
Bq         0.8902877535    -0.2818210865     0.2952374465
Bq         0.8394195164    -0.2120437549     0.4072354216
Bq         0.9191430439    -0.1588124527     0.2317059722
Bq         0.7995577526    -0.2386594060     0.4950001464
Bq         0.9590048077    -0.1321968016     0.1439412475
Bq         0.7596959888    -0.2652750571     0.5827648711
Bq         0.9988665715    -0.1055811505     0.0561765228
Bq         0.7198342250    -0.2918907082     0.6705295958
Bq         1.0387283353    -0.0789654993    -0.0315882019
Bq         0.6799724612    -0.3185063593     0.7582943205
Bq         1.0785900991    -0.0523498482    -0.1193529266
Bq         0.8792812802    -0.1854281038     0.3194706969
Bq         0.8284130430    -0.1156507722     0.4314686721
Bq         0.9081365706    -0.0624194700     0.2559392227
Bq         0.7885512792    -0.1422664233     0.5192333968
Bq         0.9479983344    -0.0358038189     0.1681744980
Bq         0.7486895154    -0.1688820744     0.6069981215
Bq         0.9878600981    -0.0091881677     0.0804097732
Bq         0.7088277516    -0.1954977255     0.6947628462
Bq         1.0277218619     0.0174274834    -0.0073549515
Bq         0.6689659878    -0.2221133766     0.7825275709
Bq         1.0675836257     0.0440431345    -0.0951196762
Bq         0.8682748068    -0.0890351211     0.3437039474
Bq         1.4697855849    -4.9352999078    -0.7388404632
Bq         1.5495091125    -4.8820686056    -0.9143699126
Bq         1.4299238211    -4.9619155589    -0.6510757385
Bq         1.5893708763    -4.8554529545    -1.0021346373
Bq         1.3900620573    -4.9885312100    -0.5633110137
Bq         1.6292326401    -4.8288373034    -1.0898993620
Bq         1.3502002935    -5.0151468611    -0.4755462890
Bq         1.6690944038    -4.8022216522    -1.1776640867
Bq         1.3103385298    -5.0417625122    -0.3877815643
Bq         1.7089561676    -4.7756060011    -1.2654288115
Bq         1.5096473487    -4.9086842567    -0.8266051879
Bq         1.4587791115    -4.8389069251    -0.7146072127
Bq         1.5385026391    -4.7856756229    -0.8901366621
Bq         1.4189173478    -4.8655225762    -0.6268424880
Bq         1.5783644029    -4.7590599717    -0.9779013869
Bq         1.3790555840    -4.8921382273    -0.5390777633
Bq         1.6182261667    -4.7324443206    -1.0656661116
Bq         1.3391938202    -4.9187538784    -0.4513130386
Bq         1.6580879305    -4.7058286695    -1.1534308363
Bq         1.2993320564    -4.9453695295    -0.3635483139
Bq         1.6979496943    -4.6792130184    -1.2411955610
Bq         1.4986408753    -4.8122912740    -0.8023719374
Bq         1.4477726382    -4.7425139424    -0.6903739623
Bq         1.5274961657    -4.6892826401    -0.8659034117
Bq         1.4079108744    -4.7691295935    -0.6026092375
Bq         1.5673579295    -4.6626669890    -0.9536681364
Bq         1.3680491106    -4.7957452446    -0.5148445128
Bq         1.6072196933    -4.6360513379    -1.0414328611
Bq         1.3281873468    -4.8223608957    -0.4270797881
Bq         1.6470814571    -4.6094356868    -1.1291975858
Bq         1.2883255830    -4.8489765468    -0.3393150634
Bq         1.6869432209    -4.5828200357    -1.2169623105
Bq         1.4876344020    -4.7158982912    -0.7781386870
Bq         1.4367661648    -4.6461209596    -0.6661407118
Bq         1.5164896924    -4.5928896574    -0.8416701612
Bq         1.3969044010    -4.6727366108    -0.5783759871
Bq         1.5563514562    -4.5662740063    -0.9294348859
Bq         1.3570426372    -4.6993522619    -0.4906112624
Bq         1.5962132199    -4.5396583552    -1.0171996107
Bq         1.3171808734    -4.7259679130    -0.4028465377
Bq         1.6360749837    -4.5130427041    -1.1049643354
Bq         1.2773191096    -4.7525835641    -0.3150818129
Bq         1.6759367475    -4.4864270530    -1.1927290601
Bq         1.4766279286    -4.6195053085    -0.7539054365
Bq         1.4257596914    -4.5497279769    -0.6419074613
Bq         1.5054832190    -4.4964966747    -0.8174369108
Bq         1.3858979276    -4.5763436280    -0.5541427366
Bq         1.5453449828    -4.4698810236    -0.9052016355
Bq         1.3460361638    -4.6029592791    -0.4663780119
Bq         1.5852067466    -4.4432653725    -0.9929663602
Bq         1.3061744001    -4.6295749303    -0.3786132872
Bq         1.6250685104    -4.4166497214    -1.0807310849
Bq         1.2663126363    -4.6561905814    -0.2908485625
Bq         1.6649302741    -4.3900340703    -1.1684958096
Bq         1.4656214552    -4.5231123258    -0.7296721861
Bq         1.4147532181    -4.4533349942    -0.6176742109
Bq         1.4944767456    -4.4001036920    -0.7932036603
Bq         1.3748914543    -4.4799506453    -0.5299094862
Bq         1.5343385094    -4.3734880409    -0.8809683850
Bq         1.3350296905    -4.5065662964    -0.4421447615
Bq         1.5742002732    -4.3468723898    -0.9687331097
Bq         1.2951679267    -4.5331819475    -0.3543800367
Bq         1.6140620370    -4.3202567387    -1.0564978344
Bq         1.2553061629    -4.5597975986    -0.2666153120
Bq         1.6539238008    -4.2936410876    -1.1442625592
Bq         1.4546149818    -4.4267193431    -0.7054389356
Bq         1.4037467447    -4.3569420115    -0.5934409604
Bq         1.4834702723    -4.3037107093    -0.7689704099
Bq         1.3638849809    -4.3835576626    -0.5056762357
Bq         1.5233320360    -4.2770950582    -0.8567351346
Bq         1.3240232171    -4.4101733137    -0.4179115110
Bq         1.5631937998    -4.2504794071    -0.9444998593
Bq         1.2841614533    -4.4367889648    -0.3301467863
Bq         1.6030555636    -4.2238637560    -1.0322645840
Bq         1.2442996895    -4.4634046159    -0.2423820616
Bq         1.6429173274    -4.1972481049    -1.1200293087
Bq         1.4436085085    -4.3303263604    -0.6812056851
Bq         1.3927402713    -4.2605490288    -0.5692077100
Bq         1.4724637989    -4.2073177266    -0.7447371594
Bq         1.3528785075    -4.2871646799    -0.4814429853
Bq         1.5123255627    -4.1807020755    -0.8325018841
Bq         1.3130167437    -4.3137803310    -0.3936782605
Bq         1.5521873265    -4.1540864244    -0.9202666088
Bq         1.2731549799    -4.3403959821    -0.3059135358
Bq         1.5920490902    -4.1274707733    -1.0080313335
Bq         1.2332932162    -4.3670116332    -0.2181488111
Bq         1.6319108540    -4.1008551222    -1.0957960582
Bq         1.4326020351    -4.2339333777    -0.6569724347
Bq         1.3817337979    -4.1641560461    -0.5449744595
Bq         1.4614573255    -4.1109247439    -0.7205039089
Bq         1.3418720341    -4.1907716972    -0.4572097348
Bq         1.5013190893    -4.0843090928    -0.8082686336
Bq         1.3020102704    -4.2173873483    -0.3694450101
Bq         1.5411808531    -4.0576934417    -0.8960333584
Bq         1.2621485066    -4.2440029994    -0.2816802854
Bq         1.5810426169    -4.0310777905    -0.9837980831
Bq         1.2222867428    -4.2706186505    -0.1939155607
Bq         1.6209043807    -4.0044621394    -1.0715628078
Bq         1.4215955617    -4.1375403950    -0.6327391842
Bq         1.3707273246    -4.0677630634    -0.5207412091
Bq         1.4504508521    -4.0145317612    -0.6962706585
Bq         1.3308655608    -4.0943787145    -0.4329764843
Bq         1.4903126159    -3.9879161100    -0.7840353832
Bq         1.2910037970    -4.1209943656    -0.3452117596
Bq         1.5301743797    -3.9613004589    -0.8718001079
Bq         1.2511420332    -4.1476100167    -0.2574470349
Bq         1.5700361435    -3.9346848078    -0.9595648326
Bq         1.2112802694    -4.1742256678    -0.1696823102
Bq         1.6098979073    -3.9080691567    -1.0473295573
Bq         1.4105890883    -4.0411474123    -0.6085059338
Bq         1.3597208512    -3.9713700807    -0.4965079586
Bq         1.4394443788    -3.9181387784    -0.6720374080
Bq         1.3198590874    -3.9979857318    -0.4087432339
Bq         1.4793061426    -3.8915231273    -0.7598021327
Bq         1.2799973236    -4.0246013829    -0.3209785092
Bq         1.5191679063    -3.8649074762    -0.8475668574
Bq         1.2401355598    -4.0512170340    -0.2332137845
Bq         1.5590296701    -3.8382918251    -0.9353315822
Bq         1.2002737960    -4.0778326851    -0.1454490597
Bq         1.5988914339    -3.8116761740    -1.0230963069
Bq         1.3995826150    -3.9447544296    -0.5842726833
Bq         1.3487143778    -3.8749770979    -0.4722747081
Bq         1.4284379054    -3.8217457957    -0.6478041576
Bq         1.3088526140    -3.9015927491    -0.3845099834
Bq         1.4682996692    -3.7951301446    -0.7355688823
Bq         1.2689908502    -3.9282084002    -0.2967452587
Bq         1.5081614330    -3.7685144935    -0.8233336070
Bq         1.2291290865    -3.9548240513    -0.2089805340
Bq         1.5480231968    -3.7418988424    -0.9110983317
Bq         1.1892673227    -3.9814397024    -0.1212158093
Bq         1.5878849605    -3.7152831913    -0.9988630564
Bq         1.3885761416    -3.8483614468    -0.5600394328
Bq         1.3377079044    -3.7785841152    -0.4480414577
Bq         1.4174314320    -3.7253528130    -0.6235709071
Bq         1.2978461407    -3.8051997663    -0.3602767330
Bq         1.4572931958    -3.6987371619    -0.7113356318
Bq         1.2579843769    -3.8318154174    -0.2725120083
Bq         1.4971549596    -3.6721215108    -0.7991003565
Bq         1.2181226131    -3.8584310686    -0.1847472835
Bq         1.5370167234    -3.6455058597    -0.8868650812
Bq         1.1782608493    -3.8850467197    -0.0969825588
Bq         1.5768784872    -3.6188902086    -0.9746298060
Bq         1.3775696682    -3.7519684641    -0.5358061824
Bq         1.3267014311    -3.6821911325    -0.4238082072
Bq         1.4064249586    -3.6289598303    -0.5993376566
Bq         1.2868396673    -3.7088067836    -0.3360434825
Bq         1.4462867224    -3.6023441792    -0.6871023814
Bq         1.2469779035    -3.7354224347    -0.2482787578
Bq         1.4861484862    -3.5757285281    -0.7748671061
Bq         1.2071161397    -3.7620380858    -0.1605140331
Bq         1.5260102500    -3.5491128770    -0.8626318308
Bq         1.1672543759    -3.7886537369    -0.0727493084
Bq         1.5658720138    -3.5224972259    -0.9503965555
Bq         1.3665631949    -3.6555754814    -0.5115729319
Bq         1.3156949577    -3.5857981498    -0.3995749568
Bq         1.3954184853    -3.5325668476    -0.5751044062
Bq         1.2758331939    -3.6124138009    -0.3118102320
Bq         1.4352802491    -3.5059511965    -0.6628691309
Bq         1.2359714301    -3.6390294520    -0.2240455073
Bq         1.4751420129    -3.4793355454    -0.7506338556
Bq         1.1961096663    -3.6656451031    -0.1362807826
Bq         1.5150037766    -3.4527198943    -0.8383985803
Bq         1.1562479026    -3.6922607542    -0.0485160579
Bq         1.5548655404    -3.4261042432    -0.9261633050
Bq         1.3555567215    -3.5591824987    -0.4873396815
Bq         1.3046884843    -3.4894051671    -0.3753417063
Bq         1.3844120119    -3.4361738649    -0.5508711557
Bq         1.2648267205    -3.5160208182    -0.2875769816
Bq         1.4242737757    -3.4095582138    -0.6386358804
Bq         1.2249649568    -3.5426364693    -0.1998122569
Bq         1.4641355395    -3.3829425627    -0.7264006052
Bq         1.1851031930    -3.5692521204    -0.1120475322
Bq         1.5039973033    -3.3563269116    -0.8141653299
Bq         1.1452414292    -3.5958677715    -0.0242828075

1
2
3
4
5
6
7
8
9
10
11
12
13
14
15
16
17
18
19
20
21
22
23
24
25
26
27
28
29
30
31
32
33
34
35
36
37
38
39
40
41
42
43
44
45
46
47
48
49
50
51
52
53
54
55
56
57
58
59
60
61
62
63
64
65
66
67
68
69
70
71
72
73
74
75
76
77
78
79
80
81
82
83
84
85
86
87
88
89
90
91
92
93
94
95
96
97
98
99
100
101
102
103
104
105
106
107
108
109
110
111
112
113
114
115
116
117
118
119
120
121
122
123
124
125
126
127
128
129
130
131
132
133
134
135
136
137
138
139
140
141
142
143
144
145
146
147
148
149
150
151
152
153
154
155
156
157
158
159
160
161
162
163
164
165
166
167
168
169
170
171
172
173
174
175
176
177
178
179
180
181
182
183
184
185
186
187
188
189
190
191
192
193
194
195
196
197
198
199
200
201
202
203
204
205
206
207
208
209
210
211
212
213
214
215
216
217
218
219
220
221
222
223
224
225
226
227
228
229
230
231
232
233
234
235
236

