%nproc=8
%mem=1000MB
# rb3lyp/6-311+g** NMR geom=connectivity

Title

0 1
C    -4.0500558   -0.5771862    0.8136712
H    -5.0263804   -1.0082727    1.0024760
C    -3.9381552    0.6617804    0.2400876
H    -4.8252424    1.2338890   -0.0111295
C    -2.6768410    1.2433246    0.0057578
C    -1.4974121    0.5051527    0.2848253
C    -1.6508332   -0.7338728    0.9404026
H    -0.7713646   -1.2730967    1.2633753
C    -2.8898548   -1.2624035    1.1994307
H    -2.9683706   -2.2124563    1.7152676
C    -2.5773185    2.5963696   -0.4192930
H    -3.4870728    3.1412239   -0.6474055
C    -1.3741895    3.2147896   -0.4364030
H    -1.2997315    4.2742019   -0.6578144
C    -0.1719488    2.4994090   -0.1734588
C    -0.2043917    1.1018437    0.0192689
C     1.0513491    3.2042560   -0.0676222
H     1.0427344    4.2819499   -0.1896997
C     2.1942091    2.5487446    0.2579577
H     3.1168527    3.0912848    0.4334727
C     2.2216473    1.1336562    0.2934990
C     1.0486931    0.3945528    0.0302412
C     3.4483363    0.4614633    0.5573939
H     4.3095794    1.0606054    0.8334846
C     3.5427346   -0.8855926    0.4749463
H     4.4731467   -1.3939704    0.7038822
C     2.4490052   -1.6474447   -0.0196319
C     1.2150704   -1.0057258   -0.3013573
C     0.2531113   -1.7434440   -1.0216591
H    -0.6541356   -1.2535051   -1.3462847
C     0.4494193   -3.0628597   -1.3413779
H    -0.3083162   -3.5944309   -1.9054060
C     1.6251726   -3.7207967   -0.9552541
H     1.7670048   -4.7687404   -1.1927019
C     2.6109872   -3.0144177   -0.3183050
H     3.5525612   -3.4902813   -0.0646367
Bq         1.1466317640     1.5386734959     0.5976757717
Bq         1.1328679449     1.6434661964     0.6916387815
Bq         1.1618198510     1.6336392262     0.4939895524
Bq         1.1183919919     1.6483796815     0.7904633961
Bq         1.1762958041     1.6287257412     0.3951649378
Bq         1.1039160388     1.6532931666     0.8892880107
Bq         1.1907717571     1.6238122561     0.2963403232
Bq         1.0894400858     1.6582066517     0.9881126253
Bq         1.2052477101     1.6188987710     0.1975157086
Bq         1.0749641328     1.6631201367     1.0869372399
Bq         1.2197236632     1.6139852859     0.0986910940
Bq         1.1473438980     1.6385527113     0.5928141670
Bq         1.1335800789     1.7433454118     0.6867771768
Bq         1.1625319850     1.7335184416     0.4891279476
Bq         1.1191041258     1.7482588969     0.7856017914
Bq         1.1770079380     1.7286049565     0.3903033330
Bq         1.1046281728     1.7531723819     0.8844264059
Bq         1.1914838910     1.7236914715     0.2914787184
Bq         1.0901522197     1.7580858670     0.9832510205
Bq         1.2059598441     1.7187779864     0.1926541038
Bq         1.0756762667     1.7629993521     1.0820756351
Bq         1.2204357971     1.7138645013     0.0938294893
Bq         1.1480560319     1.7384319267     0.5879525622
Bq         1.1342922128     1.8432246272     0.6819155720
Bq         1.1632441189     1.8333976570     0.4842663428
Bq         1.1198162598     1.8481381122     0.7807401866
Bq         1.1777200719     1.8284841719     0.3854417282
Bq         1.1053403067     1.8530515973     0.8795648012
Bq         1.1921960250     1.8235706868     0.2866171137
Bq         1.0908643537     1.8579650824     0.9783894158
Bq         1.2066719780     1.8186572017     0.1877924991
Bq         1.0763884006     1.8628785675     1.0772140303
Bq         1.2211479311     1.8137437167     0.0889678845
Bq         1.1487681659     1.8383111421     0.5830909574
Bq         1.1350043468     1.9431038425     0.6770539672
Bq         1.1639562528     1.9332768724     0.4794047381
Bq         1.1205283937     1.9480173276     0.7758785818
Bq         1.1784322059     1.9283633873     0.3805801235
Bq         1.1060524407     1.9529308127     0.8747031964
Bq         1.1929081589     1.9234499022     0.2817555089
Bq         1.0915764876     1.9578442978     0.9735278110
Bq         1.2073841120     1.9185364171     0.1829308943
Bq         1.0771005346     1.9627577829     1.0723524256
Bq         1.2218600650     1.9136229320     0.0841062797
Bq         1.1494802998     1.9381903575     0.5782293527
Bq         1.1357164807     2.0429830579     0.6721923625
Bq         1.1646683868     2.0331560878     0.4745431333
Bq         1.1212405276     2.0478965430     0.7710169771
Bq         1.1791443398     2.0282426027     0.3757185187
Bq         1.1067645746     2.0528100281     0.8698415916
Bq         1.1936202929     2.0233291176     0.2768939041
Bq         1.0922886216     2.0577235132     0.9686662062
Bq         1.2080962459     2.0184156325     0.1780692895
Bq         1.0778126685     2.0626369982     1.0674908208
Bq         1.2225721990     2.0135021474     0.0792446750
Bq         1.1501924337     2.0380695728     0.5733677479
Bq         1.1364286146     2.1428622733     0.6673307577
Bq         1.1653805207     2.1330353031     0.4696815285
Bq         1.1219526616     2.1477757584     0.7661553723
Bq         1.1798564738     2.1281218180     0.3708569139
Bq         1.1074767085     2.1526892435     0.8649799869
Bq         1.1943324268     2.1232083330     0.2720322994
Bq         1.0930007555     2.1576027285     0.9638046015
Bq         1.2088083799     2.1182948479     0.1732076848
Bq         1.0785248025     2.1625162136     1.0626292160
Bq         1.2232843329     2.1133813628     0.0743830702
Bq         1.1509045677     2.1379487882     0.5685061431
Bq         1.1371407486     2.2427414887     0.6624691529
Bq         1.1660926547     2.2329145185     0.4648199238
Bq         1.1226647955     2.2476549738     0.7612937675
Bq         1.1805686077     2.2280010334     0.3659953092
Bq         1.1081888425     2.2525684588     0.8601183821
Bq         1.1950445608     2.2230875483     0.2671706946
Bq         1.0937128894     2.2574819439     0.9589429967
Bq         1.2095205138     2.2181740633     0.1683460800
Bq         1.0792369364     2.2623954290     1.0577676113
Bq         1.2239964668     2.2132605782     0.0695214654
Bq         1.1516167016     2.2378280036     0.5636445384
Bq         1.1378528825     2.3426207040     0.6576075482
Bq         1.1668047886     2.3327937339     0.4599583190
Bq         1.1233769295     2.3475341891     0.7564321628
Bq         1.1812807417     2.3278802488     0.3611337044
Bq         1.1089009764     2.3524476742     0.8552567773
Bq         1.1957566947     2.3229667637     0.2623090898
Bq         1.0944250234     2.3573611593     0.9540813919
Bq         1.2102326477     2.3180532786     0.1634844752
Bq         1.0799490703     2.3622746444     1.0529060065
Bq         1.2247086008     2.3131397936     0.0646598607
Bq         1.1523288356     2.3377072190     0.5587829336
Bq         1.1385650165     2.4424999194     0.6527459434
Bq         1.1675169225     2.4326729493     0.4550967142
Bq         1.1240890634     2.4474134045     0.7515705580
Bq         1.1819928756     2.4277594642     0.3562720996
Bq         1.1096131104     2.4523268896     0.8503951726
Bq         1.1964688286     2.4228459791     0.2574474851
Bq         1.0951371573     2.4572403747     0.9492197872
Bq         1.2109447817     2.4179324940     0.1586228705
Bq         1.0806612043     2.4621538598     1.0480444017
Bq         1.2254207347     2.4130190089     0.0597982559
Bq         1.1530409695     2.4375864343     0.5539213288
Bq         1.1392771504     2.5423791348     0.6478843386
Bq         1.1682290565     2.5325521646     0.4502351095
Bq         1.1248011974     2.5472926199     0.7467089532
Bq         1.1827050095     2.5276386796     0.3514104949
Bq         1.1103252443     2.5522061050     0.8455335678
Bq         1.1971809626     2.5227251945     0.2525858803
Bq         1.0958492913     2.5571195900     0.9443581824
Bq         1.2116569156     2.5178117094     0.1537612657
Bq         1.0813733382     2.5620330751     1.0431827970
Bq         1.2261328687     2.5128982243     0.0549366511
Bq         1.1537531034     2.5374656497     0.5490597241
Bq         1.1399892843     2.6422583502     0.6430227339
Bq         1.1689411904     2.6324313800     0.4453735047
Bq         1.1255133313     2.6471718353     0.7418473485
Bq         1.1834171435     2.6275178949     0.3465488901
Bq         1.1110373783     2.6520853203     0.8406719630
Bq         1.1978930965     2.6226044098     0.2477242755
Bq         1.0965614252     2.6569988054     0.9394965776
Bq         1.2123690496     2.6176909248     0.1488996609
Bq         1.0820854722     2.6619122905     1.0383211922
Bq         1.2268450026     2.6127774397     0.0500750464
Bq         1.1544652374     2.6373448651     0.5441981193
Bq         1.1407014183     2.7421375656     0.6381611291
Bq         1.1696533244     2.7323105954     0.4405118999
Bq         1.1262254652     2.7470510506     0.7369857437
Bq         1.1841292774     2.7273971103     0.3416872854
Bq         1.1117495122     2.7519645357     0.8358103583
Bq         1.1986052305     2.7224836252     0.2428626708
Bq         1.0972735592     2.7568780208     0.9346349729
Bq         1.2130811835     2.7175701401     0.1440380562
Bq         1.0827976061     2.7617915059     1.0334595874
Bq         1.2275571366     2.7126566551     0.0452134416
Bq         1.1551773713     2.7372240805     0.5393365145
Bq         1.1414135522     2.8420167809     0.6332995243
Bq         1.1703654583     2.8321898108     0.4356502952
Bq         1.1269375992     2.8469302660     0.7321241389
Bq         1.1848414114     2.8272763257     0.3368256806
Bq         1.1124616461     2.8518437511     0.8309487535
Bq         1.1993173644     2.8223628406     0.2380010660
Bq         1.0979856931     2.8567572362     0.9297733681
Bq         1.2137933174     2.8174493555     0.1391764514
Bq         1.0835097401     2.8616707213     1.0285979827
Bq         1.2282692705     2.8125358704     0.0403518368
Bq         1.1558895053     2.8371032959     0.5344749098
Bq         1.1421256862     2.9418959963     0.6284379196
Bq         1.1710775923     2.9320690261     0.4307886904
Bq         1.1276497331     2.9468094814     0.7272625342
Bq         1.1855535453     2.9271555411     0.3319640758
Bq         1.1131737801     2.9517229665     0.8260871487
Bq         1.2000294983     2.9222420560     0.2331394612
Bq         1.0986978270     2.9566364516     0.9249117633
Bq         1.2145054514     2.9173285709     0.1343148466
Bq         1.0842218740     2.9615499366     1.0237363779
Bq         1.2289814044     2.9124150858     0.0354902321
Bq         1.1566016392     2.9369825112     0.5296133050
Bq         1.1428378201     3.0417752117     0.6235763148
Bq         1.1717897262     3.0319482415     0.4259270856
Bq         1.1283618671     3.0466886968     0.7224009294
Bq         1.1862656792     3.0270347564     0.3271024711
Bq         1.1138859140     3.0516021819     0.8212255440
Bq         1.2007416323     3.0221212714     0.2282778565
Bq         1.0994099610     3.0565156669     0.9200501586
Bq         1.2152175853     3.0172077863     0.1294532419
Bq         1.0849340079     3.0614291520     1.0188747731
Bq         1.2296935384     3.0122943012     0.0306286273
Bq         1.1573137732     3.0368617266     0.5247517002
Bq         1.1435499541     3.1416544271     0.6187147100
Bq         1.1725018601     3.1318274569     0.4210654809
Bq         1.1290740010     3.1465679121     0.7175393246
Bq         1.1869778132     3.1269139718     0.3222408663
Bq         1.1145980480     3.1514813972     0.8163639392
Bq         1.2014537662     3.1220004867     0.2234162517
Bq         1.1001220949     3.1563948823     0.9151885538
Bq         1.2159297193     3.1170870017     0.1245916371
Bq         1.0856461419     3.1613083674     1.0140131684
Bq         1.2304056723     3.1121735166     0.0257670225
Bq         1.1580259071     3.1367409420     0.5198900955
Bq         1.1442620880     3.2415336424     0.6138531053
Bq         1.1732139941     3.2317066723     0.4162038761
Bq         1.1297861350     3.2464471275     0.7126777199
Bq         1.1876899471     3.2267931872     0.3173792615
Bq         1.1153101819     3.2513606126     0.8115023344
Bq         1.2021659002     3.2218797021     0.2185546469
Bq         1.1008342289     3.2562740977     0.9103269490
Bq         1.2166418532     3.2169662170     0.1197300323
Bq         1.0863582758     3.2611875828     1.0091515636
Bq         1.2311178063     3.2120527319     0.0209054178
Bq         1.1587380410     3.2366201574     0.5150284907
Bq         1.1449742219     3.3414128578     0.6089915005
Bq         1.1739261280     3.3315858877     0.4113422713
Bq         1.1304982689     3.3463263429     0.7078161151
Bq         1.1884020811     3.3266724026     0.3125176568
Bq         1.1160223158     3.3512398280     0.8066407297
Bq         1.2028780341     3.3217589175     0.2136930422
Bq         1.1015463628     3.3561533131     0.9054653443
Bq         1.2173539872     3.3168454324     0.1148684276
Bq         1.0870704098     3.3610667981     1.0042899588
Bq         1.2318299402     3.3119319473     0.0160438130
Bq         1.1594501750     3.3364993727     0.5101668859
Bq         1.1456863559     3.4412920732     0.6041298957

1
2
3
4
5
6
7
8
9
10
11
12
13
14
15
16
17
18
19
20
21
22
23
24
25
26
27
28
29
30
31
32
33
34
35
36
37
38
39
40
41
42
43
44
45
46
47
48
49
50
51
52
53
54
55
56
57
58
59
60
61
62
63
64
65
66
67
68
69
70
71
72
73
74
75
76
77
78
79
80
81
82
83
84
85
86
87
88
89
90
91
92
93
94
95
96
97
98
99
100
101
102
103
104
105
106
107
108
109
110
111
112
113
114
115
116
117
118
119
120
121
122
123
124
125
126
127
128
129
130
131
132
133
134
135
136
137
138
139
140
141
142
143
144
145
146
147
148
149
150
151
152
153
154
155
156
157
158
159
160
161
162
163
164
165
166
167
168
169
170
171
172
173
174
175
176
177
178
179
180
181
182
183
184
185
186
187
188
189
190
191
192
193
194
195
196
197
198
199
200
201
202
203
204
205
206
207
208
209
210
211
212
213
214
215
216
217
218
219
220
221
222
223
224
225
226
227
228
229
230
231
232
233
234
235
236

