%nproc=8
%mem=1000MB
# rb3lyp/6-311+g** NMR geom=connectivity

Title

0 1
C    -4.0500558   -0.5771862    0.8136712
H    -5.0263804   -1.0082727    1.0024760
C    -3.9381552    0.6617804    0.2400876
H    -4.8252424    1.2338890   -0.0111295
C    -2.6768410    1.2433246    0.0057578
C    -1.4974121    0.5051527    0.2848253
C    -1.6508332   -0.7338728    0.9404026
H    -0.7713646   -1.2730967    1.2633753
C    -2.8898548   -1.2624035    1.1994307
H    -2.9683706   -2.2124563    1.7152676
C    -2.5773185    2.5963696   -0.4192930
H    -3.4870728    3.1412239   -0.6474055
C    -1.3741895    3.2147896   -0.4364030
H    -1.2997315    4.2742019   -0.6578144
C    -0.1719488    2.4994090   -0.1734588
C    -0.2043917    1.1018437    0.0192689
C     1.0513491    3.2042560   -0.0676222
H     1.0427344    4.2819499   -0.1896997
C     2.1942091    2.5487446    0.2579577
H     3.1168527    3.0912848    0.4334727
C     2.2216473    1.1336562    0.2934990
C     1.0486931    0.3945528    0.0302412
C     3.4483363    0.4614633    0.5573939
H     4.3095794    1.0606054    0.8334846
C     3.5427346   -0.8855926    0.4749463
H     4.4731467   -1.3939704    0.7038822
C     2.4490052   -1.6474447   -0.0196319
C     1.2150704   -1.0057258   -0.3013573
C     0.2531113   -1.7434440   -1.0216591
H    -0.6541356   -1.2535051   -1.3462847
C     0.4494193   -3.0628597   -1.3413779
H    -0.3083162   -3.5944309   -1.9054060
C     1.6251726   -3.7207967   -0.9552541
H     1.7670048   -4.7687404   -1.1927019
C     2.6109872   -3.0144177   -0.3183050
H     3.5525612   -3.4902813   -0.0646367
Bq         1.4579561954    -0.5609304129     0.0126590963
Bq         1.0992003213    -0.8004712729     0.8025416187
Bq         1.4978179592    -0.5343147618    -0.0751056284
Bq         1.2985091403    -0.6673930173     0.3637179952
Bq         1.2476409031    -0.5976156857     0.4757159703
Bq         1.3273644307    -0.5443843835     0.3001865209
Bq         1.2077791393    -0.6242313368     0.5634806950
Bq         1.3672261945    -0.5177687324     0.2124217962
Bq         1.1679173755    -0.6508469879     0.6512454197
Bq         1.4070879583    -0.4911530813     0.1246570715
Bq         1.1280556117    -0.6774626391     0.7390101445
Bq         1.4469497220    -0.4645374302     0.0368923468
Bq         1.0881938480    -0.7040782902     0.8267748692
Bq         1.4868114858    -0.4379217791    -0.0508723780
Bq         1.2875026669    -0.5710000346     0.3879512456
Bq         1.2366344297    -0.5012227030     0.4999492208
Bq         1.3163579573    -0.4479914008     0.3244197714
Bq         1.1967726659    -0.5278383541     0.5877139455
Bq         1.3562197211    -0.4213757497     0.2366550466
Bq         1.1569109022    -0.5544540052     0.6754786702
Bq         1.3960814849    -0.3947600986     0.1488903219
Bq         1.1170491384    -0.5810696563     0.7632433949
Bq         1.4359432487    -0.3681444475     0.0611255972
Bq         1.0771873746    -0.6076853074     0.8510081196
Bq         1.4758050125    -0.3415287964    -0.0266391275
Bq         1.2764961935    -0.4746070519     0.4121844961
Bq         1.2256279564    -0.4048297203     0.5241824712
Bq         1.3053514839    -0.3515984181     0.3486530218
Bq         1.1857661926    -0.4314453714     0.6119471960
Bq         1.3452132477    -0.3249827670     0.2608882971
Bq         1.1459044288    -0.4580610225     0.6997119207
Bq         1.3850750115    -0.2983671159     0.1731235724
Bq         1.1060426650    -0.4846766736     0.7874766454
Bq         1.4249367753    -0.2717514648     0.0853588477
Bq         1.0661809012    -0.5112923247     0.8752413701
Bq         1.4647985391    -0.2451358137    -0.0024058770
Bq         1.2654897202    -0.3782140692     0.4364177465
Bq         1.2146214830    -0.3084367376     0.5484157217
Bq         1.2943450106    -0.2552054354     0.3728862723
Bq         1.1747597192    -0.3350523887     0.6361804464
Bq         1.3342067744    -0.2285897843     0.2851215476
Bq         1.1348979554    -0.3616680398     0.7239451711
Bq         1.3740685381    -0.2019741332     0.1973568228
Bq         1.0950361916    -0.3882836909     0.8117098958
Bq         1.4139303019    -0.1753584821     0.1095920981
Bq         1.0551744278    -0.4148993420     0.8994746205
Bq         1.4537920657    -0.1487428310     0.0218273734
Bq         1.2544832468    -0.2818210865     0.4606509970
Bq         1.2036150096    -0.2120437549     0.5726489722
Bq         1.2833385372    -0.1588124527     0.3971195227
Bq         1.1637532458    -0.2386594060     0.6604136969
Bq         1.3232003010    -0.1321968016     0.3093547980
Bq         1.1238914820    -0.2652750571     0.7481784216
Bq         1.3630620648    -0.1055811505     0.2215900733
Bq         1.0840297183    -0.2918907082     0.8359431463
Bq         1.4029238286    -0.0789654993     0.1338253486
Bq         1.0441679545    -0.3185063593     0.9237078710
Bq         1.4427855923    -0.0523498482     0.0460606239
Bq         1.2434767734    -0.1854281038     0.4848842474
Bq         1.1926085362    -0.1156507722     0.5968822226
Bq         1.2723320638    -0.0624194700     0.4213527732
Bq         1.1527467725    -0.1422664233     0.6846469473
Bq         1.3121938276    -0.0358038189     0.3335880485
Bq         1.1128850087    -0.1688820744     0.7724116720
Bq         1.3520555914    -0.0091881677     0.2458233238
Bq         1.0730232449    -0.1954977255     0.8601763967
Bq         1.3919173552     0.0174274834     0.1580585990
Bq         1.0331614811    -0.2221133766     0.9479411215
Bq         1.4317791190     0.0440431345     0.0702938743
Bq         1.2324703000    -0.0890351211     0.5091174979
Bq         1.8339810782    -4.9352999078    -0.5734269127
Bq         1.9137046057    -4.8820686056    -0.7489563621
Bq         1.7941193144    -4.9619155589    -0.4856621879
Bq         1.9535663695    -4.8554529545    -0.8367210868
Bq         1.7542575506    -4.9885312100    -0.3978974632
Bq         1.9934281333    -4.8288373034    -0.9244858115
Bq         1.7143957868    -5.0151468611    -0.3101327385
Bq         2.0332898971    -4.8022216522    -1.0122505362
Bq         1.6745340230    -5.0417625122    -0.2223680138
Bq         2.0731516609    -4.7756060011    -1.1000152609
Bq         1.8738428420    -4.9086842567    -0.6611916374
Bq         1.8229746048    -4.8389069251    -0.5491936622
Bq         1.9026981324    -4.7856756229    -0.7247231116
Bq         1.7831128410    -4.8655225762    -0.4614289375
Bq         1.9425598962    -4.7590599717    -0.8124878363
Bq         1.7432510772    -4.8921382273    -0.3736642128
Bq         1.9824216599    -4.7324443206    -0.9002525611
Bq         1.7033893134    -4.9187538784    -0.2858994881
Bq         2.0222834237    -4.7058286695    -0.9880172858
Bq         1.6635275496    -4.9453695295    -0.1981347634
Bq         2.0621451875    -4.6792130184    -1.0757820105
Bq         1.8628363686    -4.8122912740    -0.6369583869
Bq         1.8119681314    -4.7425139424    -0.5249604117
Bq         1.8916916590    -4.6892826401    -0.7004898612
Bq         1.7721063676    -4.7691295935    -0.4371956870
Bq         1.9315534228    -4.6626669890    -0.7882545859
Bq         1.7322446038    -4.7957452446    -0.3494309623
Bq         1.9714151866    -4.6360513379    -0.8760193106
Bq         1.6923828401    -4.8223608957    -0.2616662376
Bq         2.0112769504    -4.6094356868    -0.9637840353
Bq         1.6525210763    -4.8489765468    -0.1739015129
Bq         2.0511387141    -4.5828200357    -1.0515487600
Bq         1.8518298952    -4.7158982912    -0.6127251365
Bq         1.8009616580    -4.6461209596    -0.5007271613
Bq         1.8806851856    -4.5928896574    -0.6762566107
Bq         1.7610998943    -4.6727366108    -0.4129624366
Bq         1.9205469494    -4.5662740063    -0.7640213354
Bq         1.7212381305    -4.6993522619    -0.3251977119
Bq         1.9604087132    -4.5396583552    -0.8517860601
Bq         1.6813763667    -4.7259679130    -0.2374329871
Bq         2.0002704770    -4.5130427041    -0.9395507848
Bq         1.6415146029    -4.7525835641    -0.1496682624
Bq         2.0401322408    -4.4864270530    -1.0273155096
Bq         1.8408234218    -4.6195053085    -0.5884918860
Bq         1.7899551847    -4.5497279769    -0.4764939108
Bq         1.8696787123    -4.4964966747    -0.6520233603
Bq         1.7500934209    -4.5763436280    -0.3887291861
Bq         1.9095404760    -4.4698810236    -0.7397880850
Bq         1.7102316571    -4.6029592791    -0.3009644614
Bq         1.9494022398    -4.4432653725    -0.8275528097
Bq         1.6703698933    -4.6295749303    -0.2131997367
Bq         1.9892640036    -4.4166497214    -0.9153175344
Bq         1.6305081295    -4.6561905814    -0.1254350120
Bq         2.0291257674    -4.3900340703    -1.0030822591
Bq         1.8298169485    -4.5231123258    -0.5642586355
Bq         1.7789487113    -4.4533349942    -0.4522606604
Bq         1.8586722389    -4.4001036920    -0.6277901098
Bq         1.7390869475    -4.4799506453    -0.3644959357
Bq         1.8985340027    -4.3734880409    -0.7155548345
Bq         1.6992251837    -4.5065662964    -0.2767312109
Bq         1.9383957665    -4.3468723898    -0.8033195592
Bq         1.6593634199    -4.5331819475    -0.1889664862
Bq         1.9782575302    -4.3202567387    -0.8910842839
Bq         1.6195016562    -4.5597975986    -0.1012017615
Bq         2.0181192940    -4.2936410876    -0.9788490086
Bq         1.8188104751    -4.4267193431    -0.5400253851
Bq         1.7679422379    -4.3569420115    -0.4280274099
Bq         1.8476657655    -4.3037107093    -0.6035568593
Bq         1.7280804741    -4.3835576626    -0.3402626852
Bq         1.8875275293    -4.2770950582    -0.6913215841
Bq         1.6882187104    -4.4101733137    -0.2524979605
Bq         1.9273892931    -4.2504794071    -0.7790863088
Bq         1.6483569466    -4.4367889648    -0.1647332358
Bq         1.9672510569    -4.2238637560    -0.8668510335
Bq         1.6084951828    -4.4634046159    -0.0769685111
Bq         2.0071128207    -4.1972481049    -0.9546157582
Bq         1.8078040017    -4.3303263604    -0.5157921346
Bq         1.7569357646    -4.2605490288    -0.4037941595
Bq         1.8366592921    -4.2073177266    -0.5793236089
Bq         1.7170740008    -4.2871646799    -0.3160294347
Bq         1.8765210559    -4.1807020755    -0.6670883336
Bq         1.6772122370    -4.3137803310    -0.2282647100
Bq         1.9163828197    -4.1540864244    -0.7548530583
Bq         1.6373504732    -4.3403959821    -0.1404999853
Bq         1.9562445835    -4.1274707733    -0.8426177830
Bq         1.5974887094    -4.3670116332    -0.0527352606
Bq         1.9961063473    -4.1008551222    -0.9303825077
Bq         1.7967975283    -4.2339333777    -0.4915588842
Bq         1.7459292912    -4.1641560461    -0.3795609090
Bq         1.8256528188    -4.1109247439    -0.5550903584
Bq         1.7060675274    -4.1907716972    -0.2917961843
Bq         1.8655145826    -4.0843090928    -0.6428550831
Bq         1.6662057636    -4.2173873483    -0.2040314596
Bq         1.9053763463    -4.0576934417    -0.7306198078
Bq         1.6263439998    -4.2440029994    -0.1162667349
Bq         1.9452381101    -4.0310777905    -0.8183845326
Bq         1.5864822360    -4.2706186505    -0.0285020101
Bq         1.9850998739    -4.0044621394    -0.9061492573
Bq         1.7857910550    -4.1375403950    -0.4673256337
Bq         1.7349228178    -4.0677630634    -0.3553276585
Bq         1.8146463454    -4.0145317612    -0.5308571080
Bq         1.6950610540    -4.0943787145    -0.2675629338
Bq         1.8545081092    -3.9879161100    -0.6186218327
Bq         1.6551992902    -4.1209943656    -0.1797982091
Bq         1.8943698730    -3.9613004589    -0.7063865574
Bq         1.6153375265    -4.1476100167    -0.0920334844
Bq         1.9342316368    -3.9346848078    -0.7941512821
Bq         1.5754757627    -4.1742256678    -0.0042687597
Bq         1.9740934005    -3.9080691567    -0.8819160068
Bq         1.7747845816    -4.0411474123    -0.4430923833
Bq         1.7239163444    -3.9713700807    -0.3310944081
Bq         1.8036398720    -3.9181387784    -0.5066238575
Bq         1.6840545807    -3.9979857318    -0.2433296834
Bq         1.8435016358    -3.8915231273    -0.5943885822
Bq         1.6441928169    -4.0246013829    -0.1555649587
Bq         1.8833633996    -3.8649074762    -0.6821533069
Bq         1.6043310531    -4.0512170340    -0.0678002339
Bq         1.9232251634    -3.8382918251    -0.7699180316
Bq         1.5644692893    -4.0778326851     0.0199644908
Bq         1.9630869272    -3.8116761740    -0.8576827564
Bq         1.7637781082    -3.9447544296    -0.4188591328
Bq         1.7129098711    -3.8749770979    -0.3068611576
Bq         1.7926333986    -3.8217457957    -0.4823906070
Bq         1.6730481073    -3.9015927491    -0.2190964329
Bq         1.8324951624    -3.7951301446    -0.5701553318
Bq         1.6331863435    -3.9282084002    -0.1313317082
Bq         1.8723569262    -3.7685144935    -0.6579200565
Bq         1.5933245797    -3.9548240513    -0.0435669835
Bq         1.9122186900    -3.7418988424    -0.7456847812
Bq         1.5534628159    -3.9814397024     0.0441977412

1
2
3
4
5
6
7
8
9
10
11
12
13
14
15
16
17
18
19
20
21
22
23
24
25
26
27
28
29
30
31
32
33
34
35
36
37
38
39
40
41
42
43
44
45
46
47
48
49
50
51
52
53
54
55
56
57
58
59
60
61
62
63
64
65
66
67
68
69
70
71
72
73
74
75
76
77
78
79
80
81
82
83
84
85
86
87
88
89
90
91
92
93
94
95
96
97
98
99
100
101
102
103
104
105
106
107
108
109
110
111
112
113
114
115
116
117
118
119
120
121
122
123
124
125
126
127
128
129
130
131
132
133
134
135
136
137
138
139
140
141
142
143
144
145
146
147
148
149
150
151
152
153
154
155
156
157
158
159
160
161
162
163
164
165
166
167
168
169
170
171
172
173
174
175
176
177
178
179
180
181
182
183
184
185
186
187
188
189
190
191
192
193
194
195
196
197
198
199
200
201
202
203
204
205
206
207
208
209
210
211
212
213
214
215
216
217
218
219
220
221
222
223
224
225
226
227
228
229
230
231
232
233
234
235
236

