%nproc=8
%mem=1000MB
# rb3lyp/6-311+g** NMR geom=connectivity

Title

0 1
C    -4.0500558   -0.5771862    0.8136712
H    -5.0263804   -1.0082727    1.0024760
C    -3.9381552    0.6617804    0.2400876
H    -4.8252424    1.2338890   -0.0111295
C    -2.6768410    1.2433246    0.0057578
C    -1.4974121    0.5051527    0.2848253
C    -1.6508332   -0.7338728    0.9404026
H    -0.7713646   -1.2730967    1.2633753
C    -2.8898548   -1.2624035    1.1994307
H    -2.9683706   -2.2124563    1.7152676
C    -2.5773185    2.5963696   -0.4192930
H    -3.4870728    3.1412239   -0.6474055
C    -1.3741895    3.2147896   -0.4364030
H    -1.2997315    4.2742019   -0.6578144
C    -0.1719488    2.4994090   -0.1734588
C    -0.2043917    1.1018437    0.0192689
C     1.0513491    3.2042560   -0.0676222
H     1.0427344    4.2819499   -0.1896997
C     2.1942091    2.5487446    0.2579577
H     3.1168527    3.0912848    0.4334727
C     2.2216473    1.1336562    0.2934990
C     1.0486931    0.3945528    0.0302412
C     3.4483363    0.4614633    0.5573939
H     4.3095794    1.0606054    0.8334846
C     3.5427346   -0.8855926    0.4749463
H     4.4731467   -1.3939704    0.7038822
C     2.4490052   -1.6474447   -0.0196319
C     1.2150704   -1.0057258   -0.3013573
C     0.2531113   -1.7434440   -1.0216591
H    -0.6541356   -1.2535051   -1.3462847
C     0.4494193   -3.0628597   -1.3413779
H    -0.3083162   -3.5944309   -1.9054060
C     1.6251726   -3.7207967   -0.9552541
H     1.7670048   -4.7687404   -1.1927019
C     2.6109872   -3.0144177   -0.3183050
H     3.5525612   -3.4902813   -0.0646367
Bq        -2.8224784807     3.2431126021    -0.0099415362
Bq        -2.8253475078     3.3646017514     0.0623921025
Bq        -2.8176635452     3.3155031167    -0.1313352337
Bq        -2.8291894892     3.3891510688     0.1592557706
Bq        -2.8138215638     3.2909537993    -0.2281989018
Bq        -2.8330314705     3.4137003862     0.2561194386
Bq        -2.8099795825     3.2664044819    -0.3250625699
Bq        -2.8368734518     3.4382497035     0.3529831067
Bq        -2.8061376012     3.2418551645    -0.4219262380
Bq        -2.8407154331     3.4627990209     0.4498467748
Bq        -2.8022956199     3.2173058471    -0.5187899061
Bq        -2.8215055265     3.3400524340    -0.0344715656
Bq        -2.8243745536     3.4615415833     0.0378620730
Bq        -2.8166905909     3.4124429486    -0.1558652631
Bq        -2.8282165349     3.4860909007     0.1347257411
Bq        -2.8128486096     3.3878936312    -0.2527289312
Bq        -2.8320585163     3.5106402181     0.2315894092
Bq        -2.8090066283     3.3633443138    -0.3495925993
Bq        -2.8359004976     3.5351895355     0.3284530773
Bq        -2.8051646470     3.3387949965    -0.4464562674
Bq        -2.8397424789     3.5597388528     0.4253167454
Bq        -2.8013226656     3.3142456791    -0.5433199355
Bq        -2.8205325723     3.4369922660    -0.0590015951
Bq        -2.8234015994     3.5584814153     0.0133320436
Bq        -2.8157176367     3.5093827805    -0.1803952926
Bq        -2.8272435807     3.5830307327     0.1101957117
Bq        -2.8118756554     3.4848334632    -0.2772589607
Bq        -2.8310855620     3.6075800500     0.2070593798
Bq        -2.8080336741     3.4602841458    -0.3741226288
Bq        -2.8349275434     3.6321293674     0.3039230479
Bq        -2.8041916927     3.4357348284    -0.4709862968
Bq        -2.8387695247     3.6566786848     0.4007867160
Bq        -2.8003497114     3.4111855110    -0.5678499649
Bq        -2.8195596180     3.5339320979    -0.0835316245
Bq        -2.8224286452     3.6554212472    -0.0111979858
Bq        -2.8147446825     3.6063226125    -0.2049253220
Bq        -2.8262706265     3.6799705646     0.0856656823
Bq        -2.8109027012     3.5817732951    -0.3017889901
Bq        -2.8301126078     3.7045198820     0.1825293504
Bq        -2.8070607198     3.5572239777    -0.3986526582
Bq        -2.8339545891     3.7290691993     0.2793930185
Bq        -2.8032187385     3.5326746603    -0.4955163263
Bq        -2.8377965705     3.7536185167     0.3762566865
Bq        -2.7993767572     3.5081253430    -0.5923799944
Bq        -2.8185866638     3.6308719298    -0.1080616539
Bq        -2.8214556909     3.7523610792    -0.0357280152
Bq        -2.8137717283     3.7032624444    -0.2294553514
Bq        -2.8252976723     3.7769103965     0.0611356528
Bq        -2.8099297469     3.6787131270    -0.3263190195
Bq        -2.8291396536     3.8014597139     0.1579993209
Bq        -2.8060877656     3.6541638097    -0.4231826876
Bq        -2.8329816349     3.8260090313     0.2548629890
Bq        -2.8022457843     3.6296144923    -0.5200463557
Bq        -2.8368236162     3.8505583487     0.3517266571
Bq        -2.7984038030     3.6050651749    -0.6169100238
Bq        -2.8176137096     3.7278117618    -0.1325916833
Bq        -2.8204827367     3.8493009111    -0.0602580447
Bq        -2.8127987740     3.8002022763    -0.2539853809
Bq        -2.8243247180     3.8738502285     0.0366056234
Bq        -2.8089567927     3.7756529590    -0.3508490489
Bq        -2.8281666994     3.8983995458     0.1334692915
Bq        -2.8051148114     3.7511036416    -0.4477127170
Bq        -2.8320086807     3.9229488632     0.2303329596
Bq        -2.8012728301     3.7265543242    -0.5445763851
Bq        -2.8358506620     3.9474981806     0.3271966277
Bq        -2.7974308487     3.7020050068    -0.6414400532
Bq        -2.8166407554     3.8247515937    -0.1571217128
Bq        -2.8195097825     3.9462407430    -0.0847880741
Bq        -2.8118258198     3.8971421083    -0.2785154103
Bq        -2.8233517638     3.9707900604     0.0120755940
Bq        -2.8079838385     3.8725927909    -0.3753790784
Bq        -2.8271937451     3.9953393778     0.1089392621
Bq        -2.8041418572     3.8480434735    -0.4722427465
Bq        -2.8310357265     4.0198886952     0.2058029302
Bq        -2.8002998758     3.8234941562    -0.5691064145
Bq        -2.8348777078     4.0444380125     0.3026665983
Bq        -2.7964578945     3.7989448388    -0.6659700826
Bq        -2.8156678012     3.9216914257    -0.1816517422
Bq        -2.8185368283     4.0431805750    -0.1093181035
Bq        -2.8108528656     3.9940819402    -0.3030454397
Bq        -2.8223788096     4.0677298924    -0.0124544354
Bq        -2.8070108843     3.9695326228    -0.3999091078
Bq        -2.8262207909     4.0922792097     0.0844092327
Bq        -2.8031689029     3.9449833055    -0.4967727759
Bq        -2.8300627722     4.1168285271     0.1812729007
Bq        -2.7993269216     3.9204339881    -0.5936364440
Bq        -2.8339047536     4.1413778445     0.2781365688
Bq        -2.7954849403     3.8958846707    -0.6905001121
Bq        -2.8146948469     4.0186312576    -0.2061817716
Bq        -2.8175638740     4.1401204069    -0.1338481330
Bq        -2.8098799114     4.0910217722    -0.3275754691
Bq        -2.8214058554     4.1646697243    -0.0369844649
Bq        -2.8060379300     4.0664724548    -0.4244391372
Bq        -2.8252478367     4.1892190417     0.0598792032
Bq        -2.8021959487     4.0419231374    -0.5213028053
Bq        -2.8290898180     4.2137683590     0.1567428713
Bq        -2.7983539674     4.0173738200    -0.6181664734
Bq        -2.8329317993     4.2383176764     0.2536065394
Bq        -2.7945119861     3.9928245027    -0.7150301415
Bq        -2.8137218927     4.1155710895    -0.2307118010
Bq        -2.8165909198     4.2370602389    -0.1583781624
Bq        -2.8089069571     4.1879616041    -0.3521054986
Bq        -2.8204329011     4.2616095562    -0.0615144943
Bq        -2.8050649758     4.1634122867    -0.4489691667
Bq        -2.8242748825     4.2861588736     0.0353491738
Bq        -2.8012229945     4.1388629694    -0.5458328347
Bq        -2.8281168638     4.3107081910     0.1322128419
Bq        -2.7973810132     4.1143136520    -0.6426965028
Bq        -2.8319588451     4.3352575084     0.2290765100
Bq        -2.7935390318     4.0897643346    -0.7395601709
Bq        -2.8127489385     4.2125109215    -0.2552418305
Bq        -2.8156179656     4.3340000708    -0.1829081918
Bq        -2.8079340029     4.2849014360    -0.3766355280
Bq        -2.8194599469     4.3585493882    -0.0860445237
Bq        -2.8040920216     4.2603521187    -0.4734991961
Bq        -2.8233019282     4.3830987055     0.0108191444
Bq        -2.8002500403     4.2358028013    -0.5703628642
Bq        -2.8271439096     4.4076480229     0.1076828125
Bq        -2.7964080589     4.2112534839    -0.6672265323
Bq        -2.8309858909     4.4321973403     0.2045464806
Bq        -2.7925660776     4.1867041665    -0.7640902003
Bq        -2.8117759843     4.3094507534    -0.2797718599
Bq        -2.8146450114     4.4309399027    -0.2074382212
Bq        -2.8069610487     4.3818412680    -0.4011655574
Bq        -2.8184869927     4.4554892201    -0.1105745531
Bq        -2.8031190674     4.3572919506    -0.4980292255
Bq        -2.8223289740     4.4800385375    -0.0137108851
Bq        -2.7992770860     4.3327426332    -0.5948928936
Bq        -2.8261709553     4.5045878549     0.0831527830
Bq        -2.7954351047     4.3081933159    -0.6917565617
Bq        -2.8300129367     4.5291371722     0.1800164511
Bq        -2.7915931234     4.2836439985    -0.7886202298
Bq        -2.8108030300     4.4063905854    -0.3043018893
Bq        -2.7633712907    -0.4160516942     1.0230265140
Bq        -2.7556873281    -0.4651503290     0.8292991778
Bq        -2.7672132721    -0.3915023768     1.1198901821
Bq        -2.7518453468    -0.4896996464     0.7324355097
Bq        -2.7710552534    -0.3669530595     1.2167538502
Bq        -2.7480033654    -0.5142489637     0.6355718416
Bq        -2.7748972347    -0.3424037421     1.3136175183
Bq        -2.7441613841    -0.5387982811     0.5387081735
Bq        -2.7787392161    -0.3178544247     1.4104811863
Bq        -2.7403194028    -0.5633475985     0.4418445054
Bq        -2.7595293094    -0.4406010116     0.9261628459
Bq        -2.7623983365    -0.3191118623     0.9984964846
Bq        -2.7547143739    -0.3682104970     0.8047691484
Bq        -2.7662403179    -0.2945625449     1.0953601526
Bq        -2.7508723925    -0.3927598144     0.7079054803
Bq        -2.7700822992    -0.2700132275     1.1922238207
Bq        -2.7470304112    -0.4173091318     0.6110418122
Bq        -2.7739242805    -0.2454639102     1.2890874888
Bq        -2.7431884299    -0.4418584492     0.5141781441
Bq        -2.7777662618    -0.2209145928     1.3859511569
Bq        -2.7393464485    -0.4664077665     0.4173144760
Bq        -2.7585563552    -0.3436611797     0.9016328165
Bq        -2.7614253823    -0.2221720303     0.9739664551
Bq        -2.7537414196    -0.2712706651     0.7802391190
Bq        -2.7652673636    -0.1976227130     1.0708301232
Bq        -2.7498994383    -0.2958199825     0.6833754509
Bq        -2.7691093450    -0.1730733956     1.1676937913
Bq        -2.7460574570    -0.3203692998     0.5865117828
Bq        -2.7729513263    -0.1485240782     1.2645574594
Bq        -2.7422154757    -0.3449186172     0.4896481147
Bq        -2.7767933076    -0.1239747608     1.3614211275
Bq        -2.7383734943    -0.3694679346     0.3927844466
Bq        -2.7575834010    -0.2467213477     0.8771027870
Bq        -2.7604524281    -0.1252321984     0.9494364257
Bq        -2.7527684654    -0.1743308332     0.7557090895
Bq        -2.7642944094    -0.1006828810     1.0463000938
Bq        -2.7489264841    -0.1988801505     0.6588454214
Bq        -2.7681363907    -0.0761335637     1.1431637619
Bq        -2.7450845028    -0.2234294679     0.5619817533
Bq        -2.7719783721    -0.0515842463     1.2400274300
Bq        -2.7412425214    -0.2479787853     0.4651180853
Bq        -2.7758203534    -0.0270349289     1.3368910981
Bq        -2.7374005401    -0.2725281027     0.3682544172
Bq        -2.7566104467    -0.1497815158     0.8525727576
Bq        -2.7594794738    -0.0282923665     0.9249063963
Bq        -2.7517955112    -0.0773910012     0.7311790601
Bq        -2.7633214552    -0.0037430491     1.0217700644
Bq        -2.7479535299    -0.1019403186     0.6343153920
Bq        -2.7671634365     0.0208062683     1.1186337325
Bq        -2.7441115485    -0.1264896360     0.5374517239
Bq        -2.7710054178     0.0453555857     1.2154974005
Bq        -2.7402695672    -0.1510389533     0.4405880558
Bq        -2.7748473992     0.0699049030     1.3123610686
Bq        -2.7364275859    -0.1755882707     0.3437243877
Bq        -2.7556374925    -0.0528416838     0.8280427282
Bq        -2.7585065196     0.0686474655     0.9003763668
Bq        -2.7508225570     0.0195488307     0.7066490307
Bq        -2.7623485010     0.0931967828     0.9972400349
Bq        -2.7469805756    -0.0050004867     0.6097853626
Bq        -2.7661904823     0.1177461002     1.0941037030
Bq        -2.7431385943    -0.0295498040     0.5129216945
Bq        -2.7700324636     0.1422954176     1.1909673711
Bq        -2.7392966130    -0.0540991214     0.4160580264
Bq        -2.7738744449     0.1668447350     1.2878310392
Bq        -2.7354546317    -0.0786484388     0.3191943583
Bq        -2.7546645383     0.0440981481     0.8035126988
Bq        -2.7575335654     0.1655872974     0.8758463374

1
2
3
4
5
6
7
8
9
10
11
12
13
14
15
16
17
18
19
20
21
22
23
24
25
26
27
28
29
30
31
32
33
34
35
36
37
38
39
40
41
42
43
44
45
46
47
48
49
50
51
52
53
54
55
56
57
58
59
60
61
62
63
64
65
66
67
68
69
70
71
72
73
74
75
76
77
78
79
80
81
82
83
84
85
86
87
88
89
90
91
92
93
94
95
96
97
98
99
100
101
102
103
104
105
106
107
108
109
110
111
112
113
114
115
116
117
118
119
120
121
122
123
124
125
126
127
128
129
130
131
132
133
134
135
136
137
138
139
140
141
142
143
144
145
146
147
148
149
150
151
152
153
154
155
156
157
158
159
160
161
162
163
164
165
166
167
168
169
170
171
172
173
174
175
176
177
178
179
180
181
182
183
184
185
186
187
188
189
190
191
192
193
194
195
196
197
198
199
200
201
202
203
204
205
206
207
208
209
210
211
212
213
214
215
216
217
218
219
220
221
222
223
224
225
226
227
228
229
230
231
232
233
234
235
236

