%nproc=8
%mem=1000MB
# rb3lyp/6-311+g** NMR geom=connectivity

Title

0 1
C    -4.0500558   -0.5771862    0.8136712
H    -5.0263804   -1.0082727    1.0024760
C    -3.9381552    0.6617804    0.2400876
H    -4.8252424    1.2338890   -0.0111295
C    -2.6768410    1.2433246    0.0057578
C    -1.4974121    0.5051527    0.2848253
C    -1.6508332   -0.7338728    0.9404026
H    -0.7713646   -1.2730967    1.2633753
C    -2.8898548   -1.2624035    1.1994307
H    -2.9683706   -2.2124563    1.7152676
C    -2.5773185    2.5963696   -0.4192930
H    -3.4870728    3.1412239   -0.6474055
C    -1.3741895    3.2147896   -0.4364030
H    -1.2997315    4.2742019   -0.6578144
C    -0.1719488    2.4994090   -0.1734588
C    -0.2043917    1.1018437    0.0192689
C     1.0513491    3.2042560   -0.0676222
H     1.0427344    4.2819499   -0.1896997
C     2.1942091    2.5487446    0.2579577
H     3.1168527    3.0912848    0.4334727
C     2.2216473    1.1336562    0.2934990
C     1.0486931    0.3945528    0.0302412
C     3.4483363    0.4614633    0.5573939
H     4.3095794    1.0606054    0.8334846
C     3.5427346   -0.8855926    0.4749463
H     4.4731467   -1.3939704    0.7038822
C     2.4490052   -1.6474447   -0.0196319
C     1.2150704   -1.0057258   -0.3013573
C     0.2531113   -1.7434440   -1.0216591
H    -0.6541356   -1.2535051   -1.3462847
C     0.4494193   -3.0628597   -1.3413779
H    -0.3083162   -3.5944309   -1.9054060
C     1.6251726   -3.7207967   -0.9552541
H     1.7670048   -4.7687404   -1.1927019
C     2.6109872   -3.0144177   -0.3183050
H     3.5525612   -3.4902813   -0.0646367
Bq        -1.3960181424    -0.3737720515     0.0167424868
Bq        -1.4973498137    -0.3393776559     0.7085147889
Bq        -1.3815421893    -0.3786855365    -0.0820821278
Bq        -1.5118257667    -0.3344641708     0.8073394034
Bq        -1.3670662363    -0.3835990216    -0.1809067424
Bq        -1.4394460015    -0.3590315962     0.3132163305
Bq        -1.4532098206    -0.2542388958     0.4071793403
Bq        -1.4242579145    -0.2640658659     0.2095301112
Bq        -1.4676857737    -0.2493254107     0.5060039549
Bq        -1.4097819615    -0.2689793510     0.1107054966
Bq        -1.4821617267    -0.2444119256     0.6048285695
Bq        -1.3953060084    -0.2738928361     0.0118808820
Bq        -1.4966376798    -0.2394984405     0.7036531841
Bq        -1.3808300554    -0.2788063212    -0.0869437326
Bq        -1.5111136328    -0.2345849554     0.8024777987
Bq        -1.3663541024    -0.2837198063    -0.1857683472
Bq        -1.4387338676    -0.2591523808     0.3083547258
Bq        -1.4524976867    -0.1543596804     0.4023177356
Bq        -1.4235457806    -0.1641866505     0.2046685064
Bq        -1.4669736397    -0.1494461953     0.5011423502
Bq        -1.4090698276    -0.1691001356     0.1058438918
Bq        -1.4814495928    -0.1445327102     0.5999669647
Bq        -1.3945938745    -0.1740136207     0.0070192772
Bq        -1.4959255458    -0.1396192251     0.6987915793
Bq        -1.3801179215    -0.1789271058    -0.0918053374
Bq        -1.5104014989    -0.1347057400     0.7976161939
Bq        -1.3656419684    -0.1838405909    -0.1906299519
Bq        -1.4380217336    -0.1592731655     0.3034931210
Bq        -1.4517855527    -0.0544804650     0.3974561308
Bq        -1.4228336467    -0.0643074352     0.1998069016
Bq        -1.4662615058    -0.0495669799     0.4962807454
Bq        -1.4083576936    -0.0692209203     0.1009822870
Bq        -1.4807374588    -0.0446534948     0.5951053600
Bq        -1.3938817406    -0.0741344053     0.0021576725
Bq        -1.4952134119    -0.0397400098     0.6939299746
Bq        -1.3794057875    -0.0790478904    -0.0966669421
Bq        -1.5096893649    -0.0348265247     0.7927545891
Bq        -1.3649298345    -0.0839613755    -0.1954915567
Bq        -1.4373095997    -0.0593939501     0.2986315162
Bq        -1.4510734188     0.0453987504     0.3925945260
Bq        -1.4221215127     0.0355717802     0.1949452969
Bq        -1.4655493718     0.0503122355     0.4914191406
Bq        -1.4076455597     0.0306582951     0.0961206823
Bq        -1.4800253249     0.0552257205     0.5902437552
Bq        -1.3931696066     0.0257448100    -0.0027039323
Bq        -1.4945012779     0.0601392056     0.6890683698
Bq        -1.3786936536     0.0208313250    -0.1015285469
Bq        -1.5089772310     0.0650526907     0.7878929844
Bq        -1.3642177005     0.0159178399    -0.2003531615
Bq        -1.4365974658     0.0404852653     0.2937699115
Bq        -1.4503612849     0.1452779658     0.3877329213
Bq        -1.4214093788     0.1354509956     0.1900836921
Bq        -1.4648372379     0.1501914508     0.4865575359
Bq        -1.4069334257     0.1305375105     0.0912590775
Bq        -1.4793131909     0.1551049359     0.5853821504
Bq        -1.3924574727     0.1256240254    -0.0075655371
Bq        -1.4937891440     0.1600184210     0.6842067650
Bq        -1.3779815196     0.1207105403    -0.1063901517
Bq        -1.5082650970     0.1649319061     0.7830313796
Bq        -1.3635055666     0.1157970553    -0.2052147662
Bq        -1.4358853318     0.1403644807     0.2889083067
Bq        -1.4496491509     0.2451571811     0.3828713165
Bq        -1.4206972448     0.2353302110     0.1852220873
Bq        -1.4641251040     0.2500706662     0.4816959311
Bq        -1.4062212918     0.2304167259     0.0863974727
Bq        -1.4786010570     0.2549841513     0.5805205457
Bq        -1.3917453387     0.2255032408    -0.0124271418
Bq        -1.4930770100     0.2598976364     0.6793451603
Bq        -1.3772693857     0.2205897557    -0.1112517564
Bq        -1.5075529631     0.2648111215     0.7781697748
Bq        -1.3627934327     0.2156762706    -0.2100763710
Bq        -1.4351731979     0.2402436960     0.2840467019
Bq        -1.4489370170     0.3450363965     0.3780097117
Bq        -1.4199851109     0.3352094263     0.1803604826
Bq        -1.4634129700     0.3499498816     0.4768343263
Bq        -1.4055091578     0.3302959413     0.0815358680
Bq        -1.4778889231     0.3548633667     0.5756589409
Bq        -1.3910332048     0.3253824562    -0.0172887466
Bq        -1.4923648761     0.3597768518     0.6744835555
Bq        -1.3765572518     0.3204689711    -0.1161133612
Bq        -1.5068408292     0.3646903368     0.7733081701
Bq        -1.3620812987     0.3155554860    -0.2149379758
Bq        -1.4344610639     0.3401229114     0.2791850972
Bq        -1.4482248830     0.4449156119     0.3731481070
Bq        -1.4192729769     0.4350886417     0.1754988778
Bq        -1.4627008361     0.4498290970     0.4719727216
Bq        -1.4047970239     0.4301751566     0.0766742632
Bq        -1.4771767891     0.4547425820     0.5707973361
Bq        -1.3903210709     0.4252616716    -0.0221503514
Bq        -1.4916527422     0.4596560671     0.6696219507
Bq        -1.3758451178     0.4203481865    -0.1209749660
Bq        -1.5061286952     0.4645695522     0.7684465653
Bq        -1.3613691648     0.4154347014    -0.2197995805
Bq        -1.4337489300     0.4400021268     0.2743234924
Bq        -1.4475127491     0.5447948273     0.3682865022
Bq        -1.4185608430     0.5349678571     0.1706372730
Bq        -1.4619887021     0.5497083123     0.4671111168
Bq        -1.4040848900     0.5300543720     0.0718126584
Bq        -1.4764646552     0.5546217974     0.5659357314
Bq        -1.3896089369     0.5251408869    -0.0270119561
Bq        -1.4909406082     0.5595352825     0.6647603460
Bq        -1.3751329839     0.5202274018    -0.1258365707
Bq        -1.5054165613     0.5644487676     0.7635849605
Bq        -1.3606570308     0.5153139168    -0.2246611853
Bq        -1.4330367960     0.5398813422     0.2694618876
Bq        -1.4468006151     0.6446740426     0.3634248974
Bq        -1.4178487091     0.6348470725     0.1657756683
Bq        -1.4612765682     0.6495875277     0.4622495120
Bq        -1.4033727560     0.6299335874     0.0669510537
Bq        -1.4757525212     0.6545010128     0.5610741266
Bq        -1.3888968030     0.6250201023    -0.0318735609
Bq        -1.4902284743     0.6594144979     0.6598987412
Bq        -1.3744208499     0.6201066172    -0.1306981755
Bq        -1.5047044273     0.6643279830     0.7587233558
Bq        -1.3599448969     0.6151931321    -0.2295227901
Bq        -1.4323246621     0.6397605576     0.2646002829
Bq        -1.4460884812     0.7445532580     0.3585632927
Bq        -1.4171365751     0.7347262878     0.1609140635
Bq        -1.4605644343     0.7494667431     0.4573879073
Bq        -1.4026606221     0.7298128028     0.0620894489
Bq        -1.4750403873     0.7543802282     0.5562125218
Bq        -1.3881846690     0.7248993177    -0.0367351657
Bq        -1.4895163403     0.7592937133     0.6550371364
Bq        -1.3737087160     0.7199858326    -0.1355597803
Bq        -1.5039922934     0.7642071983     0.7538617510
Bq        -1.3592327629     0.7150723475    -0.2343843948
Bq        -1.4316125282     0.7396397729     0.2597386781
Bq        -1.4453763473     0.8444324734     0.3537016879
Bq        -1.4164244412     0.8346055032     0.1560524587
Bq        -1.4598523003     0.8493459585     0.4525263025
Bq        -1.4019484881     0.8296920181     0.0572278442
Bq        -1.4743282534     0.8542594436     0.5513509171
Bq        -1.3874725351     0.8247785331    -0.0415967704
Bq        -1.4888042064     0.8591729286     0.6501755317
Bq        -1.3729965820     0.8198650480    -0.1404213850
Bq        -1.5032801594     0.8640864137     0.7490001462
Bq        -1.3585206290     0.8149515629    -0.2392459996
Bq        -1.4309003942     0.8395189883     0.2548770733
Bq        -1.4446642133     0.9443116888     0.3488400831
Bq        -1.4157123072     0.9344847186     0.1511908540
Bq        -1.4591401664     0.9492251739     0.4476646977
Bq        -1.4012363542     0.9295712335     0.0523662394
Bq        -1.4736161194     0.9541386589     0.5464893123
Bq        -1.3867604011     0.9246577484    -0.0464583752
Bq        -1.4880920725     0.9590521440     0.6453139269
Bq        -1.3722844481     0.9197442634    -0.1452829898
Bq        -1.5025680255     0.9639656291     0.7441385415
Bq        -1.3578084951     0.9148307783    -0.2441076044
Bq        -1.4301882603     0.9393982037     0.2500154686
Bq        -1.4439520794     1.0441909041     0.3439784784
Bq        -1.4150001733     1.0343639340     0.1463292492
Bq        -1.4584280324     1.0491043892     0.4428030930
Bq        -1.4005242203     1.0294504489     0.0475046346
Bq        -1.4729039855     1.0540178743     0.5416277075
Bq        -1.3860482672     1.0245369638    -0.0513199800
Bq        -1.4873799385     1.0589313594     0.6404523221
Bq        -1.3715723142     1.0196234787    -0.1501445946
Bq        -1.5018558916     1.0638448445     0.7392769367
Bq        -1.3570963611     1.0147099936    -0.2489692091
Bq        -1.4294761263     1.0392774191     0.2451538638
Bq        -1.4432399454     1.1440701195     0.3391168736
Bq        -1.4142880394     1.1342431494     0.1414676444
Bq        -1.4577158985     1.1489836046     0.4379414882
Bq        -1.3998120863     1.1293296643     0.0426430299
Bq        -1.4721918515     1.1538970897     0.5367661028
Bq        -1.3853361333     1.1244161792    -0.0561815847
Bq        -1.4866678046     1.1588105748     0.6355907174
Bq        -1.3708601802     1.1195026941    -0.1550061993
Bq        -1.5011437576     1.1637240599     0.7344153319
Bq        -1.3563842272     1.1145892090    -0.2538308139
Bq        -1.4287639924     1.1391566344     0.2402922590
Bq        -1.4425278115     1.2439493349     0.3342552688
Bq        -1.4135759054     1.2341223647     0.1366060397
Bq        -1.4570037645     1.2488628200     0.4330798834
Bq        -1.3990999524     1.2292088797     0.0377814251
Bq        -1.4714797176     1.2537763051     0.5319044980
Bq        -1.3846239993     1.2242953946    -0.0610431895
Bq        -1.4859556706     1.2586897901     0.6307291126
Bq        -1.3701480463     1.2193819095    -0.1598678041
Bq        -1.5004316237     1.2636032752     0.7295537272
Bq        -1.3556720932     1.2144684244    -0.2586924187
Bq        -1.4280518585     1.2390358498     0.2354306543
Bq        -1.4418156776     1.3438285503     0.3293936641
Bq        -1.4128637715     1.3340015801     0.1317444349
Bq        -1.4562916306     1.3487420354     0.4282182787
Bq        -1.3983878184     1.3290880950     0.0329198203
Bq        -1.4707675836     1.3536555204     0.5270428932
Bq        -1.3839118654     1.3241746099    -0.0659047943
Bq        -1.4852435367     1.3585690055     0.6258675078
Bq        -1.3694359123     1.3192611249    -0.1647294089
Bq        -1.4997194897     1.3634824906     0.7246921224
Bq        -1.3549599593     1.3143476398    -0.2635540234
Bq        -1.4273397245     1.3389150652     0.2305690495
Bq        -1.4411035436     1.4437077657     0.3245320593
Bq        -1.4121516375     1.4338807955     0.1268828301
Bq        -1.4555794967     1.4486212507     0.4233566739
Bq        -1.3976756845     1.4289673104     0.0280582156
Bq        -1.4700554497     1.4535347358     0.5221812885
Bq        -1.3831997314     1.4240538253    -0.0707663990
Bq        -1.4845314027     1.4584482209     0.6210059031

1
2
3
4
5
6
7
8
9
10
11
12
13
14
15
16
17
18
19
20
21
22
23
24
25
26
27
28
29
30
31
32
33
34
35
36
37
38
39
40
41
42
43
44
45
46
47
48
49
50
51
52
53
54
55
56
57
58
59
60
61
62
63
64
65
66
67
68
69
70
71
72
73
74
75
76
77
78
79
80
81
82
83
84
85
86
87
88
89
90
91
92
93
94
95
96
97
98
99
100
101
102
103
104
105
106
107
108
109
110
111
112
113
114
115
116
117
118
119
120
121
122
123
124
125
126
127
128
129
130
131
132
133
134
135
136
137
138
139
140
141
142
143
144
145
146
147
148
149
150
151
152
153
154
155
156
157
158
159
160
161
162
163
164
165
166
167
168
169
170
171
172
173
174
175
176
177
178
179
180
181
182
183
184
185
186
187
188
189
190
191
192
193
194
195
196
197
198
199
200
201
202
203
204
205
206
207
208
209
210
211
212
213
214
215
216
217
218
219
220
221
222
223
224
225
226
227
228
229
230
231
232
233
234
235
236

