%nproc=8
%mem=1000MB
# rb3lyp/6-311+g** NMR geom=connectivity

Title

0 1
C    -4.0500558   -0.5771862    0.8136712
H    -5.0263804   -1.0082727    1.0024760
C    -3.9381552    0.6617804    0.2400876
H    -4.8252424    1.2338890   -0.0111295
C    -2.6768410    1.2433246    0.0057578
C    -1.4974121    0.5051527    0.2848253
C    -1.6508332   -0.7338728    0.9404026
H    -0.7713646   -1.2730967    1.2633753
C    -2.8898548   -1.2624035    1.1994307
H    -2.9683706   -2.2124563    1.7152676
C    -2.5773185    2.5963696   -0.4192930
H    -3.4870728    3.1412239   -0.6474055
C    -1.3741895    3.2147896   -0.4364030
H    -1.2997315    4.2742019   -0.6578144
C    -0.1719488    2.4994090   -0.1734588
C    -0.2043917    1.1018437    0.0192689
C     1.0513491    3.2042560   -0.0676222
H     1.0427344    4.2819499   -0.1896997
C     2.1942091    2.5487446    0.2579577
H     3.1168527    3.0912848    0.4334727
C     2.2216473    1.1336562    0.2934990
C     1.0486931    0.3945528    0.0302412
C     3.4483363    0.4614633    0.5573939
H     4.3095794    1.0606054    0.8334846
C     3.5427346   -0.8855926    0.4749463
H     4.4731467   -1.3939704    0.7038822
C     2.4490052   -1.6474447   -0.0196319
C     1.2150704   -1.0057258   -0.3013573
C     0.2531113   -1.7434440   -1.0216591
H    -0.6541356   -1.2535051   -1.3462847
C     0.4494193   -3.0628597   -1.3413779
H    -0.3083162   -3.5944309   -1.9054060
C     1.6251726   -3.7207967   -0.9552541
H     1.7670048   -4.7687404   -1.1927019
C     2.6109872   -3.0144177   -0.3183050
H     3.5525612   -3.4902813   -0.0646367
Bq        -0.1290986700    -0.5012227030    -0.1203515936
Bq        -0.0493751424    -0.4479914008    -0.2958810431
Bq        -0.1689604338    -0.5278383541    -0.0325868689
Bq        -0.0095133786    -0.4213757497    -0.3836457678
Bq        -0.2088221975    -0.5544540052     0.0551778558
Bq         0.0303483852    -0.3947600986    -0.4714104925
Bq        -0.2486839613    -0.5810696563     0.1429425805
Bq         0.0702101490    -0.3681444475    -0.5591752172
Bq        -0.2885457251    -0.6076853074     0.2307073052
Bq         0.1100719128    -0.3415287964    -0.6469399419
Bq        -0.0892369062    -0.4746070519    -0.2081163184
Bq        -0.1401051433    -0.4048297203    -0.0961183432
Bq        -0.0603816158    -0.3515984181    -0.2716477926
Bq        -0.1799669071    -0.4314453714    -0.0083536185
Bq        -0.0205198520    -0.3249827670    -0.3594125173
Bq        -0.2198286709    -0.4580610225     0.0794111062
Bq         0.0193419118    -0.2983671159    -0.4471772420
Bq        -0.2596904347    -0.4846766736     0.1671758310
Bq         0.0592036756    -0.2717514648    -0.5349419668
Bq        -0.2995521985    -0.5112923247     0.2549405557
Bq         0.0990654394    -0.2451358137    -0.6227066915
Bq        -0.1002433796    -0.3782140692    -0.1838830679
Bq        -0.1511116167    -0.3084367376    -0.0718850927
Bq        -0.0713880891    -0.2552054354    -0.2474145422
Bq        -0.1909733805    -0.3350523887     0.0158796320
Bq        -0.0315263253    -0.2285897843    -0.3351792669
Bq        -0.2308351443    -0.3616680398     0.1036443567
Bq         0.0083354384    -0.2019741332    -0.4229439916
Bq        -0.2706969081    -0.3882836909     0.1914090814
Bq         0.0481972022    -0.1753584821    -0.5107087163
Bq        -0.3105586719    -0.4148993420     0.2791738061
Bq         0.0880589660    -0.1487428310    -0.5984734410
Bq        -0.1112498529    -0.2818210865    -0.1596498174
Bq        -0.1621180901    -0.2120437549    -0.0476518423
Bq        -0.0823945625    -0.1588124527    -0.2231812917
Bq        -0.2019798539    -0.2386594060     0.0401128824
Bq        -0.0425327987    -0.1321968016    -0.3109460164
Bq        -0.2418416177    -0.2652750571     0.1278776072
Bq        -0.0026710349    -0.1055811505    -0.3987107411
Bq        -0.2817033814    -0.2918907082     0.2156423319
Bq         0.0371907289    -0.0789654993    -0.4864754658
Bq        -0.3215651452    -0.3185063593     0.3034070566
Bq         0.0770524926    -0.0523498482    -0.5742401905
Bq        -0.1222563263    -0.1854281038    -0.1354165670
Bq        -0.1731245635    -0.1156507722    -0.0234185918
Bq        -0.0934010359    -0.0624194700    -0.1989480412
Bq        -0.2129863272    -0.1422664233     0.0643461329
Bq        -0.0535392721    -0.0358038189    -0.2867127660
Bq        -0.2528480910    -0.1688820744     0.1521108576
Bq        -0.0136775083    -0.0091881677    -0.3744774907
Bq        -0.2927098548    -0.1954977255     0.2398755823
Bq         0.0261842555     0.0174274834    -0.4622422154
Bq        -0.3325716186    -0.2221133766     0.3276403070
Bq         0.0660460193     0.0440431345    -0.5500069401
Bq        -0.1332627997    -0.0890351211    -0.1111833165
Bq         0.4682479785    -4.9352999078    -1.1937277271
Bq         0.5479715060    -4.8820686056    -1.3692571765
Bq         0.4283862147    -4.9619155589    -1.1059630024
Bq         0.5878332698    -4.8554529545    -1.4570219012
Bq         0.3885244509    -4.9885312100    -1.0181982777
Bq         0.6276950336    -4.8288373034    -1.5447866259
Bq         0.3486626871    -5.0151468611    -0.9304335529
Bq         0.6675567974    -4.8022216522    -1.6325513506
Bq         0.3088009233    -5.0417625122    -0.8426688282
Bq         0.7074185612    -4.7756060011    -1.7203160754
Bq         0.5081097422    -4.9086842567    -1.2814924518
Bq         0.4572415051    -4.8389069251    -1.1694944766
Bq         0.5369650327    -4.7856756229    -1.3450239261
Bq         0.4173797413    -4.8655225762    -1.0817297519
Bq         0.5768267965    -4.7590599717    -1.4327886508
Bq         0.3775179775    -4.8921382273    -0.9939650272
Bq         0.6166885602    -4.7324443206    -1.5205533755
Bq         0.3376562137    -4.9187538784    -0.9062003025
Bq         0.6565503240    -4.7058286695    -1.6083181002
Bq         0.2977944499    -4.9453695295    -0.8184355778
Bq         0.6964120878    -4.6792130184    -1.6960828249
Bq         0.4971032689    -4.8122912740    -1.2572592013
Bq         0.4462350317    -4.7425139424    -1.1452612262
Bq         0.5259585593    -4.6892826401    -1.3207906756
Bq         0.4063732679    -4.7691295935    -1.0574965015
Bq         0.5658203231    -4.6626669890    -1.4085554003
Bq         0.3665115041    -4.7957452446    -0.9697317767
Bq         0.6056820869    -4.6360513379    -1.4963201250
Bq         0.3266497404    -4.8223608957    -0.8819670520
Bq         0.6455438507    -4.6094356868    -1.5840848497
Bq         0.2867879766    -4.8489765468    -0.7942023273
Bq         0.6854056144    -4.5828200357    -1.6718495744
Bq         0.4860967955    -4.7158982912    -1.2330259509
Bq         0.4352285583    -4.6461209596    -1.1210279757
Bq         0.5149520859    -4.5928896574    -1.2965574251
Bq         0.3953667946    -4.6727366108    -1.0332632510
Bq         0.5548138497    -4.5662740063    -1.3843221498
Bq         0.3555050308    -4.6993522619    -0.9454985263
Bq         0.5946756135    -4.5396583552    -1.4720868746
Bq         0.3156432670    -4.7259679130    -0.8577338016
Bq         0.6345373773    -4.5130427041    -1.5598515993
Bq         0.2757815032    -4.7525835641    -0.7699690769
Bq         0.6743991411    -4.4864270530    -1.6476163240
Bq         0.4750903221    -4.6195053085    -1.2087927004
Bq         0.4242220850    -4.5497279769    -1.0967947253
Bq         0.5039456125    -4.4964966747    -1.2723241747
Bq         0.3843603212    -4.5763436280    -1.0090300005
Bq         0.5438073763    -4.4698810236    -1.3600888994
Bq         0.3444985574    -4.6029592791    -0.9212652758
Bq         0.5836691401    -4.4432653725    -1.4478536241
Bq         0.3046367936    -4.6295749303    -0.8335005511
Bq         0.6235309039    -4.4166497214    -1.5356183488
Bq         0.2647750298    -4.6561905814    -0.7457358264
Bq         0.6633926677    -4.3900340703    -1.6233830735
Bq         0.4640838488    -4.5231123258    -1.1845594500
Bq         0.4132156116    -4.4533349942    -1.0725614748
Bq         0.4929391392    -4.4001036920    -1.2480909242
Bq         0.3733538478    -4.4799506453    -0.9847967501
Bq         0.5328009030    -4.3734880409    -1.3358556489
Bq         0.3334920840    -4.5065662964    -0.8970320254
Bq         0.5726626668    -4.3468723898    -1.4236203736
Bq         0.2936303202    -4.5331819475    -0.8092673007
Bq         0.6125244305    -4.3202567387    -1.5113850984
Bq         0.2537685565    -4.5597975986    -0.7215025759
Bq         0.6523861943    -4.2936410876    -1.5991498231
Bq         0.4530773754    -4.4267193431    -1.1603261995
Bq         0.4022091382    -4.3569420115    -1.0483282243
Bq         0.4819326658    -4.3037107093    -1.2238576738
Bq         0.3623473744    -4.3835576626    -0.9605634996
Bq         0.5217944296    -4.2770950582    -1.3116223985
Bq         0.3224856107    -4.4101733137    -0.8727987749
Bq         0.5616561934    -4.2504794071    -1.3993871232
Bq         0.2826238469    -4.4367889648    -0.7850340502
Bq         0.6015179572    -4.2238637560    -1.4871518479
Bq         0.2427620831    -4.4634046159    -0.6972693255
Bq         0.6413797210    -4.1972481049    -1.5749165726
Bq         0.4420709020    -4.3303263604    -1.1360929491
Bq         0.3912026649    -4.2605490288    -1.0240949739
Bq         0.4709261924    -4.2073177266    -1.1996244233
Bq         0.3513409011    -4.2871646799    -0.9363302492
Bq         0.5107879562    -4.1807020755    -1.2873891480
Bq         0.3114791373    -4.3137803310    -0.8485655245
Bq         0.5506497200    -4.1540864244    -1.3751538727
Bq         0.2716173735    -4.3403959821    -0.7608007997
Bq         0.5905114838    -4.1274707733    -1.4629185974
Bq         0.2317556097    -4.3670116332    -0.6730360750
Bq         0.6303732476    -4.1008551222    -1.5506833222
Bq         0.4310644286    -4.2339333777    -1.1118596986
Bq         0.3801961915    -4.1641560461    -0.9998617234
Bq         0.4599197191    -4.1109247439    -1.1753911728
Bq         0.3403344277    -4.1907716972    -0.9120969987
Bq         0.4997814828    -4.0843090928    -1.2631558976
Bq         0.3004726639    -4.2173873483    -0.8243322740
Bq         0.5396432466    -4.0576934417    -1.3509206223
Bq         0.2606109001    -4.2440029994    -0.7365675493
Bq         0.5795050104    -4.0310777905    -1.4386853470
Bq         0.2207491363    -4.2706186505    -0.6488028246
Bq         0.6193667742    -4.0044621394    -1.5264500717
Bq         0.4200579553    -4.1375403950    -1.0876264481
Bq         0.3691897181    -4.0677630634    -0.9756284730
Bq         0.4489132457    -4.0145317612    -1.1511579224
Bq         0.3293279543    -4.0943787145    -0.8878637483
Bq         0.4887750095    -3.9879161100    -1.2389226471
Bq         0.2894661905    -4.1209943656    -0.8000990235
Bq         0.5286367733    -3.9613004589    -1.3266873718
Bq         0.2496044268    -4.1476100167    -0.7123342988
Bq         0.5684985371    -3.9346848078    -1.4144520965
Bq         0.2097426630    -4.1742256678    -0.6245695741
Bq         0.6083603008    -3.9080691567    -1.5022168212
Bq         0.4090514819    -4.0411474123    -1.0633931977
Bq         0.3581832447    -3.9713700807    -0.9513952225
Bq         0.4379067723    -3.9181387784    -1.1269246719
Bq         0.3183214810    -3.9979857318    -0.8636304978
Bq         0.4777685361    -3.8915231273    -1.2146893966
Bq         0.2784597172    -4.0246013829    -0.7758657731
Bq         0.5176302999    -3.8649074762    -1.3024541214
Bq         0.2385979534    -4.0512170340    -0.6881010484
Bq         0.5574920637    -3.8382918251    -1.3902188461
Bq         0.1987361896    -4.0778326851    -0.6003363237
Bq         0.5973538275    -3.8116761740    -1.4779835708
Bq         0.3980450085    -3.9447544296    -1.0391599472
Bq         0.3471767714    -3.8749770979    -0.9271619720
Bq         0.4269002989    -3.8217457957    -1.1026914215
Bq         0.3073150076    -3.9015927491    -0.8393972473
Bq         0.4667620627    -3.7951301446    -1.1904561462
Bq         0.2674532438    -3.9282084002    -0.7516325226
Bq         0.5066238265    -3.7685144935    -1.2782208709
Bq         0.2275914800    -3.9548240513    -0.6638677979
Bq         0.5464855903    -3.7418988424    -1.3659855956
Bq         0.1877297162    -3.9814397024    -0.5761030732
Bq         0.5863473541    -3.7152831913    -1.4537503203
Bq         0.3870385352    -3.8483614468    -1.0149266968
Bq         0.3361702980    -3.7785841152    -0.9029287216
Bq         0.4158938256    -3.7253528130    -1.0784581710
Bq         0.2963085342    -3.8051997663    -0.8151639969
Bq         0.4557555894    -3.6987371619    -1.1662228957
Bq         0.2564467704    -3.8318154174    -0.7273992722
Bq         0.4956173531    -3.6721215108    -1.2539876204
Bq         0.2165850066    -3.8584310686    -0.6396345475
Bq         0.5354791169    -3.6455058597    -1.3417523452
Bq         0.1767232428    -3.8850467197    -0.5518698227
Bq         0.5753408807    -3.6188902086    -1.4295170699
Bq         0.3760320618    -3.7519684641    -0.9906934463
Bq         0.3251638246    -3.6821911325    -0.8786954711
Bq         0.4048873522    -3.6289598303    -1.0542249206

1
2
3
4
5
6
7
8
9
10
11
12
13
14
15
16
17
18
19
20
21
22
23
24
25
26
27
28
29
30
31
32
33
34
35
36
37
38
39
40
41
42
43
44
45
46
47
48
49
50
51
52
53
54
55
56
57
58
59
60
61
62
63
64
65
66
67
68
69
70
71
72
73
74
75
76
77
78
79
80
81
82
83
84
85
86
87
88
89
90
91
92
93
94
95
96
97
98
99
100
101
102
103
104
105
106
107
108
109
110
111
112
113
114
115
116
117
118
119
120
121
122
123
124
125
126
127
128
129
130
131
132
133
134
135
136
137
138
139
140
141
142
143
144
145
146
147
148
149
150
151
152
153
154
155
156
157
158
159
160
161
162
163
164
165
166
167
168
169
170
171
172
173
174
175
176
177
178
179
180
181
182
183
184
185
186
187
188
189
190
191
192
193
194
195
196
197
198
199
200
201
202
203
204
205
206
207
208
209
210
211
212
213
214
215
216
217
218
219
220
221
222
223
224
225
226
227
228
229
230
231
232
233
234
235
236

