%nproc=8
%mem=1000MB
# rb3lyp/6-311+g** NMR geom=connectivity

Title

0 1
C    -4.0500558   -0.5771862    0.8136712
H    -5.0263804   -1.0082727    1.0024760
C    -3.9381552    0.6617804    0.2400876
H    -4.8252424    1.2338890   -0.0111295
C    -2.6768410    1.2433246    0.0057578
C    -1.4974121    0.5051527    0.2848253
C    -1.6508332   -0.7338728    0.9404026
H    -0.7713646   -1.2730967    1.2633753
C    -2.8898548   -1.2624035    1.1994307
H    -2.9683706   -2.2124563    1.7152676
C    -2.5773185    2.5963696   -0.4192930
H    -3.4870728    3.1412239   -0.6474055
C    -1.3741895    3.2147896   -0.4364030
H    -1.2997315    4.2742019   -0.6578144
C    -0.1719488    2.4994090   -0.1734588
C    -0.2043917    1.1018437    0.0192689
C     1.0513491    3.2042560   -0.0676222
H     1.0427344    4.2819499   -0.1896997
C     2.1942091    2.5487446    0.2579577
H     3.1168527    3.0912848    0.4334727
C     2.2216473    1.1336562    0.2934990
C     1.0486931    0.3945528    0.0302412
C     3.4483363    0.4614633    0.5573939
H     4.3095794    1.0606054    0.8334846
C     3.5427346   -0.8855926    0.4749463
H     4.4731467   -1.3939704    0.7038822
C     2.4490052   -1.6474447   -0.0196319
C     1.2150704   -1.0057258   -0.3013573
C     0.2531113   -1.7434440   -1.0216591
H    -0.6541356   -1.2535051   -1.3462847
C     0.4494193   -3.0628597   -1.3413779
H    -0.3083162   -3.5944309   -1.9054060
C     1.6251726   -3.7207967   -0.9552541
H     1.7670048   -4.7687404   -1.1927019
C     2.6109872   -3.0144177   -0.3183050
H     3.5525612   -3.4902813   -0.0646367
Bq         2.1952852973    -1.5876397995     0.2547267262
Bq         2.0668909757    -1.6587780947     0.7326955967
Bq         2.2209641616    -1.5734121405     0.1591329521
Bq         2.0412121113    -1.6730057537     0.8282893708
Bq         2.2466430259    -1.5591844815     0.0635391780
Bq         2.0155332470    -1.6872334127     0.9238831449
Bq         2.2723218902    -1.5449568225    -0.0320545961
Bq         2.1439275686    -1.6160951176     0.4459142744
Bq         2.1145576538    -1.5313400826     0.5552485881
Bq         2.1659153824    -1.5028847645     0.3640610399
Bq         2.0888787895    -1.5455677416     0.6508423622
Bq         2.1915942467    -1.4886571055     0.2684672658
Bq         2.0631999251    -1.5597954007     0.7464361363
Bq         2.2172731111    -1.4744294465     0.1728734917
Bq         2.0375210608    -1.5740230597     0.8420299104
Bq         2.2429519754    -1.4602017875     0.0772797176
Bq         2.0118421965    -1.5882507187     0.9376236845
Bq         2.2686308397    -1.4459741284    -0.0183140565
Bq         2.1402365181    -1.5171124236     0.4596548140
Bq         2.1108666032    -1.4323573886     0.5689891276
Bq         2.1622243319    -1.4039020705     0.3778015794
Bq         2.0851877389    -1.4465850476     0.6645829017
Bq         2.1879031962    -1.3896744115     0.2822078053
Bq         2.0595088746    -1.4608127066     0.7601766758
Bq         2.2135820605    -1.3754467524     0.1866140313
Bq         2.0338300103    -1.4750403656     0.8557704499
Bq         2.2392609249    -1.3612190934     0.0910202572
Bq         2.0081511460    -1.4892680247     0.9513642240
Bq         2.2649397892    -1.3469914344    -0.0045735169
Bq         2.1365454676    -1.4181297295     0.4733953535
Bq         2.1071755527    -1.3333746945     0.5827296672
Bq         2.1585332814    -1.3049193765     0.3915421190
Bq         2.0814966884    -1.3476023536     0.6783234413
Bq         2.1842121457    -1.2906917174     0.2959483449
Bq         2.0558178241    -1.3618300126     0.7739172154
Bq         2.2098910100    -1.2764640584     0.2003545708
Bq         2.0301389597    -1.3760576716     0.8695109895
Bq         2.2355698743    -1.2622363994     0.1047607967
Bq         2.0044600954    -1.3902853306     0.9651047636
Bq         2.2612487386    -1.2480087404     0.0091670226
Bq         2.1328544170    -1.3191470355     0.4871358931
Bq         2.1034845022    -1.2343920005     0.5964702067
Bq         2.1548422308    -1.2059366824     0.4052826586
Bq         2.0778056378    -1.2486196595     0.6920639808
Bq         2.1805210951    -1.1917090234     0.3096888845
Bq         2.0521267735    -1.2628473185     0.7876577549
Bq         2.2061999595    -1.1774813644     0.2140951104
Bq         2.0264479092    -1.2770749776     0.8832515290
Bq         2.2318788238    -1.1632537054     0.1185013363
Bq         2.0007690449    -1.2913026366     0.9788453031
Bq         2.2575576881    -1.1490260463     0.0229075622
Bq         2.1291633665    -1.2201643415     0.5008764327
Bq         2.0997934516    -1.1354093065     0.6102107463
Bq         2.1511511803    -1.1069539884     0.4190231981
Bq         2.0741145873    -1.1496369655     0.7058045204
Bq         2.1768300446    -1.0927263294     0.3234294240
Bq         2.0484357230    -1.1638646245     0.8013982945
Bq         2.2025089089    -1.0784986703     0.2278356499
Bq         2.0227568587    -1.1780922835     0.8969920686
Bq         2.2281877732    -1.0642710113     0.1322418758
Bq         1.9970779943    -1.1923199426     0.9925858427
Bq         2.2538666376    -1.0500433523     0.0366481017
Bq         2.1254723160    -1.1211816474     0.5146169722
Bq         2.0961024011    -1.0364266124     0.6239512859
Bq         2.1474601297    -1.0079712944     0.4327637377
Bq         2.0704235368    -1.0506542714     0.7195450600
Bq         2.1731389941    -0.9937436353     0.3371699636
Bq         2.0447446725    -1.0648819305     0.8151388341
Bq         2.1988178584    -0.9795159763     0.2415761895
Bq         2.0190658081    -1.0791095895     0.9107326082
Bq         2.2244967227    -0.9652883173     0.1459824154
Bq         1.9933869438    -1.0933372485     1.0063263822
Bq         2.2501755870    -0.9510606583     0.0503886413
Bq         2.1217812654    -1.0221989534     0.5283575118
Bq         2.0924113506    -0.9374439184     0.6376918254
Bq         2.1437690792    -0.9089886003     0.4465042772
Bq         2.0667324862    -0.9516715774     0.7332855995
Bq         2.1694479435    -0.8947609413     0.3509105031
Bq         2.0410536219    -0.9658992364     0.8288793736
Bq         2.1951268079    -0.8805332823     0.2553167290
Bq         2.0153747576    -0.9801268955     0.9244731477
Bq         2.2208056722    -0.8663056232     0.1597229550
Bq         1.9896958933    -0.9943545545     1.0200669218
Bq         2.2464845365    -0.8520779642     0.0641291809
Bq         2.1180902149    -0.9232162594     0.5420980513
Bq         2.0887203000    -0.8384612243     0.6514323650
Bq         2.1400780287    -0.8100059063     0.4602448168
Bq         2.0630414357    -0.8526888834     0.7470261391
Bq         2.1657568930    -0.7957782473     0.3646510427
Bq         2.0373625714    -0.8669165424     0.8426199132
Bq         2.1914357573    -0.7815505882     0.2690572686
Bq         2.0116837071    -0.8811442014     0.9382136873
Bq         2.2171146216    -0.7673229292     0.1734634945
Bq         1.9860048427    -0.8953718605     1.0338074614
Bq         2.2427934860    -0.7530952702     0.0778697204
Bq         2.1143991644    -0.8242335653     0.5558385909
Bq         2.0850292495    -0.7394785303     0.6651729045
Bq         2.1363869781    -0.7110232123     0.4739853564
Bq         2.0593503852    -0.7537061893     0.7607666786
Bq         2.1620658425    -0.6967955532     0.3783915823
Bq         2.0336715208    -0.7679338484     0.8563604527
Bq         2.1877447068    -0.6825678942     0.2827978082
Bq         2.0079926565    -0.7821615074     0.9519542268
Bq         2.2134235711    -0.6683402352     0.1872040341
Bq         1.9823137922    -0.7963891664     1.0475480009
Bq         2.2391024354    -0.6541125761     0.0916102600
Bq         2.1107081138    -0.7252508713     0.5695791304
Bq         2.0813381990    -0.6404958363     0.6789134441
Bq         2.1326959276    -0.6120405182     0.4877258959
Bq         2.0556593346    -0.6547234953     0.7745072182
Bq         2.1583747919    -0.5978128592     0.3921321218
Bq         2.0299804703    -0.6689511543     0.8701009923
Bq         2.1840536562    -0.5835852002     0.2965383477
Bq         2.0043016060    -0.6831788134     0.9656947664
Bq         2.2097325206    -0.5693575411     0.2009445736
Bq         1.9786227417    -0.6974064724     1.0612885405
Bq         2.2354113849    -0.5551298821     0.1053507995
Bq         2.1070170633    -0.6262681772     0.5833196700
Bq         2.0776471484    -0.5415131422     0.6926539837
Bq         2.1290048771    -0.5130578242     0.5014664355
Bq         2.0519682841    -0.5557408013     0.7882477578
Bq         2.1546837414    -0.4988301652     0.4058726614
Bq         2.0262894198    -0.5699684603     0.8838415319
Bq         2.1803626057    -0.4846025061     0.3102788873
Bq         2.0006105555    -0.5841961193     0.9794353059
Bq         2.2060414700    -0.4703748471     0.2146851132
Bq         1.9749316911    -0.5984237784     1.0750290800
Bq         2.2317203344    -0.4561471881     0.1190913391
Bq         2.1033260127    -0.5272854832     0.5970602096
Bq         2.0739560979    -0.4425304482     0.7063945232
Bq         2.1253138265    -0.4140751301     0.5152069750
Bq         2.0482772336    -0.4567581072     0.8019882973
Bq         2.1509926909    -0.3998474711     0.4196132009
Bq         2.0225983692    -0.4709857663     0.8975820714
Bq         2.1766715552    -0.3856198121     0.3240194268
Bq         1.9969195049    -0.4852134253     0.9931758455
Bq         2.2023504195    -0.3713921531     0.2284256527
Bq         1.9712406406    -0.4994410843     1.0887696196
Bq         2.2280292838    -0.3571644940     0.1328318787
Bq         2.0996349622    -0.4283027892     0.6108007491
Bq         2.0702650474    -0.3435477542     0.7201350628
Bq         2.1216227760    -0.3150924361     0.5289475146
Bq         2.0445861830    -0.3577754132     0.8157288369
Bq         2.1473016403    -0.3008647771     0.4333537405
Bq         2.0189073187    -0.3720030722     0.9113226110
Bq         2.1729805046    -0.2866371181     0.3377599664
Bq         1.9932284544    -0.3862307313     1.0069163851
Bq         2.1986593690    -0.2724094590     0.2421661923
Bq         1.9675495901    -0.4004583903     1.1025101592
Bq         2.2243382333    -0.2581818000     0.1465724182
Bq         2.0959439117    -0.3293200951     0.6245412887
Bq         2.0665739968    -0.2445650601     0.7338756023
Bq         2.1179317255    -0.2161097421     0.5426880541
Bq         2.0408951325    -0.2587927192     0.8294693764
Bq         2.1436105898    -0.2018820830     0.4470942801
Bq         2.0152162682    -0.2730203782     0.9250631505
Bq         2.1692894541    -0.1876544240     0.3515005060
Bq         1.9895374038    -0.2872480372     1.0206569246
Bq         2.1949683184    -0.1734267650     0.2559067319
Bq         1.9638585395    -0.3014756962     1.1162506987
Bq         2.2206471828    -0.1591991060     0.1603129578
Bq         2.0922528611    -0.2303374011     0.6382818282
Bq         2.0628829463    -0.1455823661     0.7476161419
Bq         2.1142406749    -0.1171270480     0.5564285937
Bq         2.0372040820    -0.1598100251     0.8432099160
Bq         2.1399195392    -0.1028993890     0.4608348196
Bq         2.0115252176    -0.1740376842     0.9388036901
Bq         2.1655984036    -0.0886717300     0.3652410455
Bq         1.9858463533    -0.1882653432     1.0343974642
Bq         2.1912772679    -0.0744440710     0.2696472714
Bq         1.9601674890    -0.2024930022     1.1299912383
Bq         2.2169561322    -0.0602164119     0.1740534973
Bq         2.0885618106    -0.1313547071     0.6520223678
Bq         2.0591918957    -0.0465996721     0.7613566815
Bq         2.1105496244    -0.0181443540     0.5701691333
Bq         2.0335130314    -0.0608273311     0.8569504556
Bq         2.1362284887    -0.0039166950     0.4745753592
Bq         2.0078341671    -0.0750549901     0.9525442296
Bq         2.1619073530     0.0103109641     0.3789815851
Bq         1.9821553028    -0.0892826491     1.0481380037
Bq         2.1875862174     0.0245386231     0.2833878110
Bq         1.9564764385    -0.1035103082     1.1437317778
Bq         2.2132650817     0.0387662821     0.1877940369
Bq         2.0848707601    -0.0323720130     0.6657629074
Bq         2.0555008452     0.0523830220     0.7750972210
Bq         2.1068585739     0.0808383400     0.5839096728
Bq         2.0298219809     0.0381553629     0.8706909951
Bq         2.1325374382     0.0950659991     0.4883158987
Bq         2.0041431166     0.0239277039     0.9662847692
Bq         2.1582163025     0.1092936581     0.3927221246
Bq         1.9784642522     0.0097000449     1.0618785433
Bq         2.1838951668     0.1235213171     0.2971283505
Bq         1.9527853879    -0.0045276141     1.1574723174
Bq         2.2095740311     0.1377489761     0.2015345764
Bq         2.0811797095     0.0666106810     0.6795034469
Bq         2.0518097947     0.1513657160     0.7888377606
Bq         2.1031675233     0.1798210341     0.5976502124
Bq         2.0261309304     0.1371380570     0.8844315347
Bq         2.1288463876     0.1940486931     0.5020564383
Bq         2.0004520660     0.1229103980     0.9800253088

1
2
3
4
5
6
7
8
9
10
11
12
13
14
15
16
17
18
19
20
21
22
23
24
25
26
27
28
29
30
31
32
33
34
35
36
37
38
39
40
41
42
43
44
45
46
47
48
49
50
51
52
53
54
55
56
57
58
59
60
61
62
63
64
65
66
67
68
69
70
71
72
73
74
75
76
77
78
79
80
81
82
83
84
85
86
87
88
89
90
91
92
93
94
95
96
97
98
99
100
101
102
103
104
105
106
107
108
109
110
111
112
113
114
115
116
117
118
119
120
121
122
123
124
125
126
127
128
129
130
131
132
133
134
135
136
137
138
139
140
141
142
143
144
145
146
147
148
149
150
151
152
153
154
155
156
157
158
159
160
161
162
163
164
165
166
167
168
169
170
171
172
173
174
175
176
177
178
179
180
181
182
183
184
185
186
187
188
189
190
191
192
193
194
195
196
197
198
199
200
201
202
203
204
205
206
207
208
209
210
211
212
213
214
215
216
217
218
219
220
221
222
223
224
225
226
227
228
229
230
231
232
233
234
235
236

