%nproc=8
%mem=1000MB
# rb3lyp/6-311+g** NMR geom=connectivity

Title

0 1
C    -4.0500558   -0.5771862    0.8136712
H    -5.0263804   -1.0082727    1.0024760
C    -3.9381552    0.6617804    0.2400876
H    -4.8252424    1.2338890   -0.0111295
C    -2.6768410    1.2433246    0.0057578
C    -1.4974121    0.5051527    0.2848253
C    -1.6508332   -0.7338728    0.9404026
H    -0.7713646   -1.2730967    1.2633753
C    -2.8898548   -1.2624035    1.1994307
H    -2.9683706   -2.2124563    1.7152676
C    -2.5773185    2.5963696   -0.4192930
H    -3.4870728    3.1412239   -0.6474055
C    -1.3741895    3.2147896   -0.4364030
H    -1.2997315    4.2742019   -0.6578144
C    -0.1719488    2.4994090   -0.1734588
C    -0.2043917    1.1018437    0.0192689
C     1.0513491    3.2042560   -0.0676222
H     1.0427344    4.2819499   -0.1896997
C     2.1942091    2.5487446    0.2579577
H     3.1168527    3.0912848    0.4334727
C     2.2216473    1.1336562    0.2934990
C     1.0486931    0.3945528    0.0302412
C     3.4483363    0.4614633    0.5573939
H     4.3095794    1.0606054    0.8334846
C     3.5427346   -0.8855926    0.4749463
H     4.4731467   -1.3939704    0.7038822
C     2.4490052   -1.6474447   -0.0196319
C     1.2150704   -1.0057258   -0.3013573
C     0.2531113   -1.7434440   -1.0216591
H    -0.6541356   -1.2535051   -1.3462847
C     0.4494193   -3.0628597   -1.3413779
H    -0.3083162   -3.5944309   -1.9054060
C     1.6251726   -3.7207967   -0.9552541
H     1.7670048   -4.7687404   -1.1927019
C     2.6109872   -3.0144177   -0.3183050
H     3.5525612   -3.4902813   -0.0646367
Bq        -1.0009179376    -2.3427589963    -0.6190250793
Bq        -0.6023002997    -2.0766024852    -1.4966723264
Bq        -0.8016091186    -2.2096807407    -1.0578487029
Bq        -0.8524773558    -2.1399034091    -0.9458507277
Bq        -0.7727538282    -2.0866721069    -1.1213801771
Bq        -0.8923391196    -2.1665190602    -0.8580860030
Bq        -0.7328920644    -2.0600564558    -1.2091449019
Bq        -0.9322008834    -2.1931347113    -0.7703212783
Bq        -0.6930303006    -2.0334408047    -1.2969096266
Bq        -0.9720626471    -2.2197503624    -0.6825565536
Bq        -0.6531685368    -2.0068251536    -1.3846743513
Bq        -1.0119244109    -2.2463660136    -0.5947918289
Bq        -0.6133067731    -1.9802095025    -1.4724390760
Bq        -0.8126155920    -2.1132877580    -1.0336154524
Bq        -0.8634838291    -2.0435104264    -0.9216174773
Bq        -0.7837603016    -1.9902791242    -1.0971469267
Bq        -0.9033455929    -2.0701260775    -0.8338527525
Bq        -0.7438985378    -1.9636634731    -1.1849116514
Bq        -0.9432073567    -2.0967417286    -0.7460880278
Bq        -0.7040367740    -1.9370478220    -1.2726763761
Bq        -0.9830691205    -2.1233573797    -0.6583233031
Bq        -0.6641750102    -1.9104321709    -1.3604411008
Bq        -1.0229308843    -2.1499730308    -0.5705585784
Bq        -0.6243132464    -1.8838165198    -1.4482058255
Bq        -0.8236220654    -2.0168947753    -1.0093822020
Bq        -0.8744903025    -1.9471174437    -0.8973842268
Bq        -0.7947667749    -1.8938861415    -1.0729136762
Bq        -0.9143520663    -1.9737330948    -0.8096195021
Bq        -0.7549050112    -1.8672704904    -1.1606784009
Bq        -0.9542138301    -2.0003487459    -0.7218547774
Bq        -0.7150432474    -1.8406548393    -1.2484431257
Bq        -0.9940755939    -2.0269643970    -0.6340900527
Bq        -0.6751814836    -1.8140391882    -1.3362078504
Bq        -1.0339373577    -2.0535800481    -0.5463253279
Bq        -0.6353197198    -1.7874235371    -1.4239725751
Bq        -0.8346285387    -1.9205017926    -0.9851489515
Bq        -0.8854967759    -1.8507244610    -0.8731509763
Bq        -0.8057732483    -1.7974931588    -1.0486804258
Bq        -0.9253585397    -1.8773401121    -0.7853862516
Bq        -0.7659114845    -1.7708775077    -1.1364451505
Bq        -0.9652203035    -1.9039557632    -0.6976215269
Bq        -0.7260497207    -1.7442618566    -1.2242098752
Bq        -1.0050820673    -1.9305714143    -0.6098568022
Bq        -0.6861879570    -1.7176462055    -1.3119745999
Bq        -1.0449438310    -1.9571870654    -0.5220920775
Bq        -0.6463261932    -1.6910305543    -1.3997393246
Bq        -0.8456350121    -1.8241088099    -0.9609157011
Bq        -0.8965032493    -1.7543314783    -0.8489177259
Bq        -0.8167797217    -1.7011001761    -1.0244471753
Bq        -0.9363650131    -1.7809471294    -0.7611530012
Bq        -0.7769179579    -1.6744845250    -1.1122119000
Bq        -0.9762267768    -1.8075627805    -0.6733882765
Bq        -0.7370561941    -1.6478688739    -1.1999766247
Bq        -1.0160885406    -1.8341784316    -0.5856235517
Bq        -0.6971944303    -1.6212532227    -1.2877413494
Bq        -1.0559503044    -1.8607940827    -0.4978588270
Bq        -0.6573326665    -1.5946375716    -1.3755060742
Bq        -0.8566414855    -1.7277158272    -0.9366824506
Bq        -0.9075097226    -1.6579384956    -0.8246844754
Bq        -0.8277861951    -1.6047071934    -1.0002139249
Bq        -0.9473714864    -1.6845541467    -0.7369197507
Bq        -0.7879244313    -1.5780915422    -1.0879786496
Bq        -0.9872332502    -1.7111697978    -0.6491550260
Bq        -0.7480626675    -1.5514758911    -1.1757433743
Bq        -1.0270950140    -1.7377854489    -0.5613903013
Bq        -0.7082009037    -1.5248602400    -1.2635080990
Bq        -1.0669567778    -1.7644011000    -0.4736255766
Bq        -0.6683391399    -1.4982445889    -1.3512728237
Bq        -0.8676479589    -1.6313228445    -0.9124492001
Bq        -0.9185161960    -1.5615455129    -0.8004512250
Bq        -0.8387926684    -1.5083142106    -0.9759806744
Bq        -0.9583779598    -1.5881611640    -0.7126865003
Bq        -0.7989309046    -1.4816985595    -1.0637453991
Bq        -0.9982397236    -1.6147768151    -0.6249217755
Bq        -0.7590691409    -1.4550829084    -1.1515101238
Bq        -1.0381014874    -1.6413924662    -0.5371570508
Bq        -0.7192073771    -1.4284672573    -1.2392748485
Bq        -1.0779632512    -1.6680081173    -0.4493923261
Bq        -0.6793456133    -1.4018516062    -1.3270395732
Bq        -0.8786544322    -1.5349298617    -0.8882159497
Bq        -0.9295226694    -1.4651525301    -0.7762179745
Bq        -0.8497991418    -1.4119212279    -0.9517474239
Bq        -0.9693844332    -1.4917681812    -0.6884532498
Bq        -0.8099373780    -1.3853055768    -1.0395121486
Bq        -1.0092461970    -1.5183838324    -0.6006885251
Bq        -0.7700756142    -1.3586899257    -1.1272768734
Bq        -1.0491079607    -1.5449994835    -0.5129238004
Bq        -0.7302138504    -1.3320742746    -1.2150415981
Bq        -1.0889697245    -1.5716151346    -0.4251590757
Bq        -0.6903520867    -1.3054586235    -1.3028063228
Bq        -0.8896609056    -1.4385368790    -0.8639826992
Bq        -0.9405291428    -1.3687595474    -0.7519847241
Bq        -0.8608056152    -1.3155282452    -0.9275141735
Bq        -0.9803909065    -1.3953751985    -0.6642199993
Bq        -0.8209438514    -1.2889125941    -1.0152788982
Bq        -1.0202526703    -1.4219908496    -0.5764552746
Bq        -0.7810820876    -1.2622969430    -1.1030436229
Bq        -1.0601144341    -1.4486065008    -0.4886905499
Bq        -0.7412203238    -1.2356812919    -1.1908083476
Bq        -1.0999761979    -1.4752221519    -0.4009258252
Bq        -0.7013585600    -1.2090656408    -1.2785730723
Bq        -0.9006673790    -1.3421438963    -0.8397494488
Bq        -0.9515356161    -1.2723665647    -0.7277514736
Bq        -0.8718120886    -1.2191352625    -0.9032809230
Bq        -0.9913973799    -1.2989822158    -0.6399867489
Bq        -0.8319503248    -1.1925196114    -0.9910456477
Bq        -1.0312591437    -1.3255978669    -0.5522220242
Bq        -0.7920885610    -1.1659039603    -1.0788103724
Bq        -1.0711209075    -1.3522135180    -0.4644572995
Bq        -0.7522267972    -1.1392883092    -1.1665750972
Bq        -1.1109826713    -1.3788291691    -0.3766925747
Bq        -0.7123650334    -1.1126726581    -1.2543398219
Bq        -0.9116738523    -1.2457509136    -0.8155161983
Bq        -0.9625420895    -1.1759735820    -0.7035182231
Bq        -0.8828185619    -1.1227422798    -0.8790476726
Bq        -1.0024038533    -1.2025892331    -0.6157534984
Bq        -0.8429567981    -1.0961266287    -0.9668123973
Bq        -1.0422656171    -1.2292048842    -0.5279887737
Bq        -0.8030950343    -1.0695109776    -1.0545771220
Bq        -1.0821273809    -1.2558205353    -0.4402240490
Bq        -0.7632332706    -1.0428953265    -1.1423418467
Bq        -1.1219891446    -1.2824361864    -0.3524593243
Bq        -0.7233715068    -1.0162796754    -1.2301065714
Bq        -0.9226803257    -1.1493579309    -0.7912829478
Bq        -0.9735485629    -1.0795805993    -0.6792849727
Bq        -0.8938250353    -1.0263492971    -0.8548144221
Bq        -1.0134103267    -1.1061962504    -0.5915202480
Bq        -0.8539632715    -0.9997336460    -0.9425791468
Bq        -1.0532720904    -1.1328119015    -0.5037555233
Bq        -0.8141015077    -0.9731179949    -1.0303438715
Bq        -1.0931338542    -1.1594275526    -0.4159907985
Bq        -0.7742397439    -0.9465023438    -1.1181085962
Bq        -1.1329956180    -1.1860432037    -0.3282260738
Bq        -0.7343779801    -0.9198866927    -1.2058733210
Bq        -0.9336867991    -1.0529649482    -0.7670496974
Bq        -0.9845550362    -0.9831876166    -0.6550517222
Bq        -0.9048315087    -0.9299563144    -0.8305811716
Bq        -1.0244168000    -1.0098032677    -0.5672869975
Bq        -0.8649697449    -0.9033406633    -0.9183458964
Bq        -1.0642785638    -1.0364189188    -0.4795222728
Bq        -0.8251079811    -0.8767250122    -1.0061106211
Bq        -1.1041403276    -1.0630345699    -0.3917575481
Bq        -0.7852462173    -0.8501093610    -1.0938753458
Bq        -1.1440020914    -1.0896502210    -0.3039928234
Bq        -0.7453844535    -0.8234937099    -1.1816400705
Bq        -0.9446932725    -0.9565719655    -0.7428164469
Bq        -0.9955615096    -0.8867946339    -0.6308184718
Bq        -0.9158379820    -0.8335633317    -0.8063479212
Bq        -1.0354232734    -0.9134102850    -0.5430537470
Bq        -0.8759762183    -0.8069476805    -0.8941126459
Bq        -1.0752850372    -0.9400259361    -0.4552890223
Bq        -0.8361144545    -0.7803320294    -0.9818773706
Bq        -1.1151468010    -0.9666415872    -0.3675242976
Bq        -0.7962526907    -0.7537163783    -1.0696420953
Bq        -1.1550085648    -0.9932572383    -0.2797595729
Bq        -0.7563909269    -0.7271007272    -1.1574068200
Bq        -0.9556997458    -0.8601789828    -0.7185831965
Bq        -1.0065679830    -0.7904016512    -0.6065852213
Bq        -0.9268444554    -0.7371703489    -0.7821146707
Bq        -1.0464297468    -0.8170173023    -0.5188204966
Bq        -0.8869826916    -0.7105546978    -0.8698793954
Bq        -1.0862915106    -0.8436329534    -0.4310557719
Bq        -0.8471209278    -0.6839390467    -0.9576441202
Bq        -1.1261532743    -0.8702486045    -0.3432910472
Bq        -0.8072591640    -0.6573233956    -1.0454088449
Bq        -1.1660150381    -0.8968642556    -0.2555263225
Bq        -0.7673974003    -0.6307077445    -1.1331735696
Bq        -0.9667062192    -0.7637860000    -0.6943499460
Bq        -1.0175744564    -0.6940086684    -0.5823519708
Bq        -0.9378509288    -0.6407773662    -0.7578814203
Bq        -1.0574362201    -0.7206243196    -0.4945872461
Bq        -0.8979891650    -0.6141617151    -0.8456461450
Bq        -1.0972979839    -0.7472399707    -0.4068225214
Bq        -0.8581274012    -0.5875460640    -0.9334108697
Bq        -1.1371597477    -0.7738556218    -0.3190577967
Bq        -0.8182656374    -0.5609304129    -1.0211755944
Bq        -1.1770215115    -0.8004712729    -0.2312930720
Bq        -0.7784038736    -0.5343147618    -1.1089403191
Bq        -0.9777126926    -0.6673930173    -0.6701166956
Bq        -1.0285809297    -0.5976156857    -0.5581187204
Bq        -0.9488574022    -0.5443843835    -0.7336481698
Bq        -1.0684426935    -0.6242313368    -0.4703539957
Bq        -0.9089956384    -0.5177687324    -0.8214128945
Bq        -1.1083044573    -0.6508469879    -0.3825892710
Bq        -0.8691338746    -0.4911530813    -0.9091776192
Bq        -1.1481662211    -0.6774626391    -0.2948245462
Bq        -0.8292721108    -0.4645374302    -0.9969423440
Bq        -1.1880279849    -0.7040782902    -0.2070598215
Bq        -0.7894103470    -0.4379217791    -1.0847070687
Bq        -0.9887191659    -0.5710000346    -0.6458834451
Bq        -1.0395874031    -0.5012227030    -0.5338854699
Bq        -0.9598638755    -0.4479914008    -0.7094149194
Bq        -1.0794491669    -0.5278383541    -0.4461207452
Bq        -0.9200021117    -0.4213757497    -0.7971796441
Bq        -1.1193109307    -0.5544540052    -0.3583560205
Bq        -0.8801403480    -0.3947600986    -0.8849443688
Bq        -1.1591726945    -0.5810696563    -0.2705912958
Bq        -0.8402785842    -0.3681444475    -0.9727090935
Bq        -1.1990344583    -0.6076853074    -0.1828265711
Bq        -0.8004168204    -0.3415287964    -1.0604738182

1
2
3
4
5
6
7
8
9
10
11
12
13
14
15
16
17
18
19
20
21
22
23
24
25
26
27
28
29
30
31
32
33
34
35
36
37
38
39
40
41
42
43
44
45
46
47
48
49
50
51
52
53
54
55
56
57
58
59
60
61
62
63
64
65
66
67
68
69
70
71
72
73
74
75
76
77
78
79
80
81
82
83
84
85
86
87
88
89
90
91
92
93
94
95
96
97
98
99
100
101
102
103
104
105
106
107
108
109
110
111
112
113
114
115
116
117
118
119
120
121
122
123
124
125
126
127
128
129
130
131
132
133
134
135
136
137
138
139
140
141
142
143
144
145
146
147
148
149
150
151
152
153
154
155
156
157
158
159
160
161
162
163
164
165
166
167
168
169
170
171
172
173
174
175
176
177
178
179
180
181
182
183
184
185
186
187
188
189
190
191
192
193
194
195
196
197
198
199
200
201
202
203
204
205
206
207
208
209
210
211
212
213
214
215
216
217
218
219
220
221
222
223
224
225
226
227
228
229
230
231
232
233
234
235
236

