%nproc=8
%mem=1000MB
# rb3lyp/6-311+g** NMR geom=connectivity

Title

0 1
C    -4.0500558   -0.5771862    0.8136712
H    -5.0263804   -1.0082727    1.0024760
C    -3.9381552    0.6617804    0.2400876
H    -4.8252424    1.2338890   -0.0111295
C    -2.6768410    1.2433246    0.0057578
C    -1.4974121    0.5051527    0.2848253
C    -1.6508332   -0.7338728    0.9404026
H    -0.7713646   -1.2730967    1.2633753
C    -2.8898548   -1.2624035    1.1994307
H    -2.9683706   -2.2124563    1.7152676
C    -2.5773185    2.5963696   -0.4192930
H    -3.4870728    3.1412239   -0.6474055
C    -1.3741895    3.2147896   -0.4364030
H    -1.2997315    4.2742019   -0.6578144
C    -0.1719488    2.4994090   -0.1734588
C    -0.2043917    1.1018437    0.0192689
C     1.0513491    3.2042560   -0.0676222
H     1.0427344    4.2819499   -0.1896997
C     2.1942091    2.5487446    0.2579577
H     3.1168527    3.0912848    0.4334727
C     2.2216473    1.1336562    0.2934990
C     1.0486931    0.3945528    0.0302412
C     3.4483363    0.4614633    0.5573939
H     4.3095794    1.0606054    0.8334846
C     3.5427346   -0.8855926    0.4749463
H     4.4731467   -1.3939704    0.7038822
C     2.4490052   -1.6474447   -0.0196319
C     1.2150704   -1.0057258   -0.3013573
C     0.2531113   -1.7434440   -1.0216591
H    -0.6541356   -1.2535051   -1.3462847
C     0.4494193   -3.0628597   -1.3413779
H    -0.3083162   -3.5944309   -1.9054060
C     1.6251726   -3.7207967   -0.9552541
H     1.7670048   -4.7687404   -1.1927019
C     2.6109872   -3.0144177   -0.3183050
H     3.5525612   -3.4902813   -0.0646367
Bq         2.2342061220    -0.9658992364     0.8807649372
Bq         2.3882793079    -0.8805332823     0.3072022926
Bq         2.2085272577    -0.9801268955     0.9763587113
Bq         2.4139581723    -0.8663056232     0.2116085185
Bq         2.1828483934    -0.9943545545     1.0719524854
Bq         2.4396370366    -0.8520779642     0.1160147444
Bq         2.3112427150    -0.9232162594     0.5939836149
Bq         2.2818728001    -0.8384612243     0.7033179286
Bq         2.3332305288    -0.8100059063     0.5121303804
Bq         2.2561939358    -0.8526888834     0.7989117027
Bq         2.3589093931    -0.7957782473     0.4165366063
Bq         2.2305150715    -0.8669165424     0.8945054768
Bq         2.3845882574    -0.7815505882     0.3209428322
Bq         2.2048362072    -0.8811442014     0.9900992508
Bq         2.4102671217    -0.7673229292     0.2253490581
Bq         2.1791573428    -0.8953718605     1.0856930249
Bq         2.4359459861    -0.7530952702     0.1297552840
Bq         2.3075516644    -0.8242335653     0.6077241545
Bq         2.2781817496    -0.7394785303     0.7170584681
Bq         2.3295394782    -0.7110232123     0.5258709199
Bq         2.2525028853    -0.7537061893     0.8126522422
Bq         2.3552183426    -0.6967955532     0.4302771458
Bq         2.2268240209    -0.7679338484     0.9082460163
Bq         2.3808972069    -0.6825678942     0.3346833717
Bq         2.2011451566    -0.7821615074     1.0038397904
Bq         2.4065760712    -0.6683402352     0.2390895976
Bq         2.1754662923    -0.7963891664     1.0994335645
Bq         2.4322549355    -0.6541125761     0.1434958236
Bq         2.3038606139    -0.7252508713     0.6214646940
Bq         2.2744906991    -0.6404958363     0.7307990077
Bq         2.3258484277    -0.6120405182     0.5396114595
Bq         2.2488118347    -0.6547234953     0.8263927818
Bq         2.3515272920    -0.5978128592     0.4440176854
Bq         2.2231329704    -0.6689511543     0.9219865559
Bq         2.3772061563    -0.5835852002     0.3484239113
Bq         2.1974541061    -0.6831788134     1.0175803300
Bq         2.4028850207    -0.5693575411     0.2528301372
Bq         2.1717752418    -0.6974064724     1.1131741041
Bq         2.4285638850    -0.5551298821     0.1572363631
Bq         2.3001695634    -0.6262681772     0.6352052336
Bq         2.2707996485    -0.5415131422     0.7445395472
Bq         2.3221573772    -0.5130578242     0.5533519991
Bq         2.2451207842    -0.5557408013     0.8401333213
Bq         2.3478362415    -0.4988301652     0.4577582250
Bq         2.2194419199    -0.5699684603     0.9357270954
Bq         2.3735151058    -0.4846025061     0.3621644509
Bq         2.1937630555    -0.5841961193     1.0313208695
Bq         2.3991939701    -0.4703748471     0.2665706768
Bq         2.1680841912    -0.5984237784     1.1269146436
Bq         2.4248728345    -0.4561471881     0.1709769027
Bq         2.2964785128    -0.5272854832     0.6489457731
Bq         2.2671085980    -0.4425304482     0.7582800868
Bq         2.3184663266    -0.4140751301     0.5670925386
Bq         2.2414297337    -0.4567581072     0.8538738609
Bq         2.3441451909    -0.3998474711     0.4714987645
Bq         2.2157508693    -0.4709857663     0.9494676350
Bq         2.3698240553    -0.3856198121     0.3759049904
Bq         2.1900720050    -0.4852134253     1.0450614091
Bq         2.3955029196    -0.3713921531     0.2803112163
Bq         2.1643931407    -0.4994410843     1.1406551832
Bq         2.4211817839    -0.3571644940     0.1847174422
Bq         2.2927874623    -0.4283027892     0.6626863127
Bq         2.2634175474    -0.3435477542     0.7720206264
Bq         2.3147752761    -0.3150924361     0.5808330782
Bq         2.2377386831    -0.3577754132     0.8676144005
Bq         2.3404541404    -0.3008647771     0.4852393041
Bq         2.2120598188    -0.3720030722     0.9632081745
Bq         2.3661330047    -0.2866371181     0.3896455300
Bq         2.1863809545    -0.3862307313     1.0588019486
Bq         2.3918118691    -0.2724094590     0.2940517559
Bq         2.1607020902    -0.4004583903     1.1543957227
Bq         2.4174907334    -0.2581818000     0.1984579818
Bq         2.2890964118    -0.3293200951     0.6764268523
Bq         2.2597264969    -0.2445650601     0.7857611659
Bq         2.3110842256    -0.2161097421     0.5945736177
Bq         2.2340476326    -0.2587927192     0.8813549400
Bq         2.3367630899    -0.2018820830     0.4989798436
Bq         2.2083687683    -0.2730203782     0.9769487141
Bq         2.3624419542    -0.1876544240     0.4033860695
Bq         2.1826899039    -0.2872480372     1.0725424882
Bq         2.3881208185    -0.1734267650     0.3077922954
Bq         2.1570110396    -0.3014756962     1.1681362623
Bq         2.4137996828    -0.1591991060     0.2121985213
Bq         2.2854053612    -0.2303374011     0.6901673918
Bq         2.2560354464    -0.1455823661     0.7995017055
Bq         2.3073931750    -0.1171270480     0.6083141573
Bq         2.2303565821    -0.1598100251     0.8950954796
Bq         2.3330720393    -0.1028993890     0.5127203832
Bq         2.2046777177    -0.1740376842     0.9906892537
Bq         2.3587509037    -0.0886717300     0.4171266091
Bq         2.1789988534    -0.1882653432     1.0862830278
Bq         2.3844297680    -0.0744440710     0.3215328350
Bq         2.1533199891    -0.2024930022     1.1818768019
Bq         2.4101086323    -0.0602164119     0.2259390609
Bq         2.2817143107    -0.1313547071     0.7039079314
Bq         2.2523443958    -0.0465996721     0.8132422450
Bq         2.3037021245    -0.0181443540     0.6220546968
Bq         2.2266655315    -0.0608273311     0.9088360191
Bq         2.3293809888    -0.0039166950     0.5264609227
Bq         2.2009866672    -0.0750549901     1.0044297932
Bq         2.3550598531     0.0103109641     0.4308671487
Bq         2.1753078029    -0.0892826491     1.1000235673
Bq         2.3807387175     0.0245386231     0.3352733746
Bq         2.1496289385    -0.1035103082     1.1956173414
Bq         2.4064175818     0.0387662821     0.2396796005
Bq         2.2780232602    -0.0323720130     0.7176484709
Bq         2.2486533453     0.0523830220     0.8269827846
Bq         2.3000110739     0.0808383400     0.6357952364
Bq         2.2229744810     0.0381553629     0.9225765587
Bq         2.3256899383     0.0950659991     0.5402014623
Bq         2.1972956167     0.0239277039     1.0181703328
Bq         2.3513688026     0.1092936581     0.4446076882
Bq         2.1716167523     0.0097000449     1.1137641069
Bq         2.3770476669     0.1235213171     0.3490139141
Bq         2.1459378880    -0.0045276141     1.2093578810
Bq         2.4027265312     0.1377489761     0.2534201400
Bq         2.2743322096     0.0666106810     0.7313890105
Bq         2.2449622948     0.1513657160     0.8407233242
Bq         2.2963200234     0.1798210341     0.6495357760
Bq         2.2192834304     0.1371380570     0.9363170982
Bq         2.3219988877     0.1940486931     0.5539420019
Bq         2.1936045661     0.1229103980     1.0319108723
Bq         2.3476777521     0.2082763521     0.4583482278
Bq         2.1679257018     0.1086827389     1.1275046464
Bq         2.3733566164     0.2225040112     0.3627544537
Bq         2.1422468375     0.0944550799     1.2230984205
Bq         2.3990354807     0.2367316702     0.2671606796
Bq         2.2706411591     0.1655933750     0.7451295501
Bq         2.2412712442     0.2503484100     0.8544638637
Bq         2.2926289729     0.2788037281     0.6632763155
Bq         2.2155923799     0.2361207510     0.9500576378
Bq         2.3183078372     0.2930313871     0.5676825414
Bq         2.1899135156     0.2218930920     1.0456514119
Bq         2.3439867015     0.3072590462     0.4720887673
Bq         2.1642346513     0.2076654330     1.1412451860
Bq         2.3696655658     0.3214867052     0.3764949932
Bq         2.1385557869     0.1934377739     1.2368389601
Bq         2.3953444302     0.3357143642     0.2809012191
Bq         2.2669501086     0.2645760691     0.7588700896
Bq         2.2375801937     0.3493311041     0.8682044033
Bq         2.2889379223     0.3777864221     0.6770168551
Bq         2.2119013294     0.3351034451     0.9637981774
Bq         2.3146167867     0.3920140812     0.5814230810
Bq         2.1862224651     0.3208757860     1.0593919515
Bq         2.3402956510     0.4062417402     0.4858293069
Bq         2.1605436007     0.3066481270     1.1549857256
Bq         2.3659745153     0.4204693992     0.3902355328
Bq         2.1348647364     0.2924204680     1.2505794996
Bq         2.3916533796     0.4346970583     0.2946417587
Bq         2.2632590580     0.3635587631     0.7726106292
Bq         2.2338891432     0.4483137981     0.8819449428
Bq         2.2852468718     0.4767691162     0.6907573946
Bq         2.2082102788     0.4340861391     0.9775387169
Bq         2.3109257361     0.4909967752     0.5951636205
Bq         2.1825314145     0.4198584801     1.0731324910
Bq         2.3366046005     0.5052244342     0.4995698464
Bq         2.1568525502     0.4056308210     1.1687262651
Bq         2.3622834648     0.5194520933     0.4039760724
Bq         2.1311736859     0.3914031620     1.2643200392
Bq         2.3879623291     0.5336797523     0.3083822983
Bq         2.2595680075     0.4625414571     0.7863511687
Bq         2.2301980926     0.5472964922     0.8956854824
Bq         2.2815558213     0.5757518102     0.7044979342
Bq         2.2045192283     0.5330688331     0.9912792565
Bq         2.3072346856     0.5899794692     0.6089041601
Bq         2.1788403640     0.5188411741     1.0868730306
Bq         2.3329135499     0.6042071283     0.5133103860
Bq         2.1531614997     0.5046135151     1.1824668047
Bq         2.3585924142     0.6184347873     0.4177166119
Bq         2.1274826353     0.4903858560     1.2780605788
Bq         2.3842712786     0.6326624463     0.3221228378
Bq         2.2558769569     0.5615241512     0.8000917083
Bq         2.2265070421     0.6462791862     0.9094260219
Bq         2.2778647707     0.6747345042     0.7182384738
Bq         2.2008281778     0.6320515272     1.0050197960
Bq         2.3035436351     0.6889621633     0.6226446997
Bq         2.1751493134     0.6178238681     1.1006135701
Bq         2.3292224994     0.7031898223     0.5270509256
Bq         2.1494704491     0.6035962091     1.1962073442
Bq         2.3549013637     0.7174174813     0.4314571515
Bq         2.1237915848     0.5893685501     1.2918011183
Bq         2.3805802280     0.7316451404     0.3358633774
Bq         2.2521859064     0.6605068452     0.8138322479
Bq         2.2228159916     0.7452618802     0.9231665615
Bq         2.2741737202     0.7737171983     0.7319790133
Bq         2.1971371272     0.7310342212     1.0187603356
Bq         2.2998525845     0.7879448573     0.6363852392
Bq         2.1714582629     0.7168065622     1.1143541097
Bq         2.3255314488     0.8021725163     0.5407914651
Bq         2.1457793986     0.7025789031     1.2099478838
Bq         2.3512103132     0.8164001754     0.4451976910
Bq         2.1201005343     0.6883512441     1.3055416579
Bq         2.3768891775     0.8306278344     0.3496039169
Bq         2.2484948559     0.7594895393     0.8275727874
Bq         2.2191249410     0.8442445743     0.9369071011
Bq         2.2704826697     0.8726998923     0.7457195529
Bq         2.1934460767     0.8300169152     1.0325008752
Bq         2.2961615340     0.8869275513     0.6501257788
Bq         2.1677672124     0.8157892562     1.1280946493
Bq         2.3218403983     0.9011552104     0.5545320047

1
2
3
4
5
6
7
8
9
10
11
12
13
14
15
16
17
18
19
20
21
22
23
24
25
26
27
28
29
30
31
32
33
34
35
36
37
38
39
40
41
42
43
44
45
46
47
48
49
50
51
52
53
54
55
56
57
58
59
60
61
62
63
64
65
66
67
68
69
70
71
72
73
74
75
76
77
78
79
80
81
82
83
84
85
86
87
88
89
90
91
92
93
94
95
96
97
98
99
100
101
102
103
104
105
106
107
108
109
110
111
112
113
114
115
116
117
118
119
120
121
122
123
124
125
126
127
128
129
130
131
132
133
134
135
136
137
138
139
140
141
142
143
144
145
146
147
148
149
150
151
152
153
154
155
156
157
158
159
160
161
162
163
164
165
166
167
168
169
170
171
172
173
174
175
176
177
178
179
180
181
182
183
184
185
186
187
188
189
190
191
192
193
194
195
196
197
198
199
200
201
202
203
204
205
206
207
208
209
210
211
212
213
214
215
216
217
218
219
220
221
222
223
224
225
226
227
228
229
230
231
232
233
234
235
236

