%nproc=8
%mem=1000MB
# rb3lyp/6-311+g** NMR geom=connectivity

Title

0 1
C    -4.0500558   -0.5771862    0.8136712
H    -5.0263804   -1.0082727    1.0024760
C    -3.9381552    0.6617804    0.2400876
H    -4.8252424    1.2338890   -0.0111295
C    -2.6768410    1.2433246    0.0057578
C    -1.4974121    0.5051527    0.2848253
C    -1.6508332   -0.7338728    0.9404026
H    -0.7713646   -1.2730967    1.2633753
C    -2.8898548   -1.2624035    1.1994307
H    -2.9683706   -2.2124563    1.7152676
C    -2.5773185    2.5963696   -0.4192930
H    -3.4870728    3.1412239   -0.6474055
C    -1.3741895    3.2147896   -0.4364030
H    -1.2997315    4.2742019   -0.6578144
C    -0.1719488    2.4994090   -0.1734588
C    -0.2043917    1.1018437    0.0192689
C     1.0513491    3.2042560   -0.0676222
H     1.0427344    4.2819499   -0.1896997
C     2.1942091    2.5487446    0.2579577
H     3.1168527    3.0912848    0.4334727
C     2.2216473    1.1336562    0.2934990
C     1.0486931    0.3945528    0.0302412
C     3.4483363    0.4614633    0.5573939
H     4.3095794    1.0606054    0.8334846
C     3.5427346   -0.8855926    0.4749463
H     4.4731467   -1.3939704    0.7038822
C     2.4490052   -1.6474447   -0.0196319
C     1.2150704   -1.0057258   -0.3013573
C     0.2531113   -1.7434440   -1.0216591
H    -0.6541356   -1.2535051   -1.3462847
C     0.4494193   -3.0628597   -1.3413779
H    -0.3083162   -3.5944309   -1.9054060
C     1.6251726   -3.7207967   -0.9552541
H     1.7670048   -4.7687404   -1.1927019
C     2.6109872   -3.0144177   -0.3183050
H     3.5525612   -3.4902813   -0.0646367
Bq        -0.1783180421     4.2550662515     0.6732959355
Bq        -0.0625104177     4.2157583708    -0.1173009812
Bq        -0.1927939951     4.2599797365     0.7721205501
Bq        -0.0480344647     4.2108448857    -0.2161255958
Bq        -0.1204142299     4.2354123111     0.2779974771
Bq        -0.1341780490     4.3402050116     0.3719604870
Bq        -0.1052261429     4.3303780414     0.1743112578
Bq        -0.1486540020     4.3451184967     0.4707851015
Bq        -0.0907501898     4.3254645563     0.0754866432
Bq        -0.1631299551     4.3500319818     0.5696097161
Bq        -0.0762742368     4.3205510713    -0.0233379714
Bq        -0.1776059081     4.3549454668     0.6684343307
Bq        -0.0617982838     4.3156375862    -0.1221625860
Bq        -0.1920818612     4.3598589519     0.7672589453
Bq        -0.0473223307     4.3107241011    -0.2209872005
Bq        -0.1197020959     4.3352915265     0.2731358724
Bq        -0.0708406222    -0.6537557573     0.6295341842
Bq        -0.0418887161    -0.6635827274     0.4318849550
Bq        -0.0853165752    -0.6488422722     0.7283587988
Bq        -0.0274127631    -0.6684962125     0.3330603404
Bq        -0.0997925283    -0.6439287871     0.8271834134
Bq        -0.0129368100    -0.6734096976     0.2342357259
Bq        -0.1142684813    -0.6390153020     0.9260080280
Bq         0.0015391430    -0.6783231827     0.1354111113
Bq        -0.1287444344    -0.6341018169     1.0248326425
Bq         0.0160150961    -0.6832366678     0.0365864967
Bq        -0.0563646691    -0.6586692423     0.5307095696
Bq        -0.0701284882    -0.5538765419     0.6246725794
Bq        -0.0411765822    -0.5637035121     0.4270233503
Bq        -0.0846044413    -0.5489630568     0.7234971940
Bq        -0.0267006291    -0.5686169971     0.3281987357
Bq        -0.0990803943    -0.5440495717     0.8223218086
Bq        -0.0122246761    -0.5735304822     0.2293741211
Bq        -0.1135563474    -0.5391360866     0.9211464232
Bq         0.0022512770    -0.5784439673     0.1305495065
Bq        -0.1280323004    -0.5342226016     1.0199710378
Bq         0.0167272300    -0.5833574524     0.0317248919
Bq        -0.0556525352    -0.5587900270     0.5258479648
Bq        -0.0694163543    -0.4539973265     0.6198109747
Bq        -0.0404644482    -0.4638242967     0.4221617455
Bq        -0.0838923074    -0.4490838414     0.7186355892
Bq        -0.0259884952    -0.4687377818     0.3233371309
Bq        -0.0983682604    -0.4441703563     0.8174602038
Bq        -0.0115125421    -0.4736512668     0.2245125163
Bq        -0.1128442134    -0.4392568713     0.9162848184
Bq         0.0029634109    -0.4785647519     0.1256879017
Bq        -0.1273201665    -0.4343433862     1.0151094330
Bq         0.0174393640    -0.4834782370     0.0268632872
Bq        -0.0549404013    -0.4589108116     0.5209863601
Bq        -0.0687042204    -0.3541181111     0.6149493699
Bq        -0.0397523143    -0.3639450813     0.4173001407
Bq        -0.0831801734    -0.3492046261     0.7137739845
Bq        -0.0252763612    -0.3688585664     0.3184755261
Bq        -0.0976561265    -0.3442911410     0.8125985991
Bq        -0.0108004082    -0.3737720515     0.2196509116
Bq        -0.1121320795    -0.3393776559     0.9114232137
Bq         0.0036755449    -0.3786855365     0.1208262970
Bq        -0.1266080325    -0.3344641708     1.0102478282
Bq         0.0181514979    -0.3835990216     0.0220016824
Bq        -0.0542282673    -0.3590315962     0.5161247553
Bq        -0.0679920864    -0.2542388958     0.6100877651
Bq        -0.0390401803    -0.2640658659     0.4124385360
Bq        -0.0824680395    -0.2493254107     0.7089123797
Bq        -0.0245642273    -0.2689793510     0.3136139214
Bq        -0.0969439925    -0.2444119256     0.8077369943
Bq        -0.0100882742    -0.2738928361     0.2147893068
Bq        -0.1114199456    -0.2394984405     0.9065616089
Bq         0.0043876788    -0.2788063212     0.1159646922
Bq        -0.1258958986    -0.2345849554     1.0053862235
Bq         0.0188636318    -0.2837198063     0.0171400776
Bq        -0.0535161334    -0.2591523808     0.5112631505
Bq        -0.0672799525    -0.1543596804     0.6052261604
Bq        -0.0383280464    -0.1641866505     0.4075769312
Bq        -0.0817559055    -0.1494461953     0.7040507749
Bq        -0.0238520933    -0.1691001356     0.3087523166
Bq        -0.0962318586    -0.1445327102     0.8028753895
Bq        -0.0093761403    -0.1740136207     0.2099277020
Bq        -0.1107078116    -0.1396192251     0.9017000041
Bq         0.0050998127    -0.1789271058     0.1111030874
Bq        -0.1251837647    -0.1347057400     1.0005246187
Bq         0.0195757658    -0.1838405909     0.0122784729
Bq        -0.0528039994    -0.1592731655     0.5064015458
Bq        -0.0665678185    -0.0544804650     0.6003645556
Bq        -0.0376159125    -0.0643074352     0.4027153264
Bq        -0.0810437716    -0.0495669799     0.6991891702
Bq        -0.0231399594    -0.0692209203     0.3038907118
Bq        -0.0955197246    -0.0446534948     0.7980137848
Bq        -0.0086640064    -0.0741344053     0.2050660973
Bq        -0.1099956777    -0.0397400098     0.8968383994
Bq         0.0058119467    -0.0790478904     0.1062414827
Bq        -0.1244716307    -0.0348265247     0.9956630139
Bq         0.0202878997    -0.0839613755     0.0074168681
Bq        -0.0520918655    -0.0593939501     0.5015399410
Bq        -0.0658556846     0.0453987504     0.5955029508
Bq        -0.0369037785     0.0355717802     0.3978537217
Bq        -0.0803316376     0.0503122355     0.6943275654
Bq        -0.0224278255     0.0306582951     0.2990291071
Bq        -0.0948075907     0.0552257205     0.7931521800
Bq        -0.0079518724     0.0257448100     0.2002044925
Bq        -0.1092835437     0.0601392056     0.8919767946
Bq         0.0065240806     0.0208313250     0.1013798779
Bq        -0.1237594968     0.0650526907     0.9908014092
Bq         0.0210000337     0.0159178399     0.0025552633
Bq        -0.0513797316     0.0404852653     0.4966783362
Bq        -0.0651435507     0.1452779658     0.5906413461
Bq        -0.0361916446     0.1354509956     0.3929921169
Bq        -0.0796195037     0.1501914508     0.6894659606
Bq        -0.0217156915     0.1305375105     0.2941675023
Bq        -0.0940954567     0.1551049359     0.7882905752
Bq        -0.0072397385     0.1256240254     0.1953428877
Bq        -0.1085714098     0.1600184210     0.8871151898
Bq         0.0072362146     0.1207105403     0.0965182731
Bq        -0.1230473628     0.1649319061     0.9859398044
Bq         0.0217121676     0.1157970553    -0.0023063414
Bq        -0.0506675976     0.1403644807     0.4918167315
Bq        -0.0644314167     0.2451571811     0.5857797413
Bq        -0.0354795106     0.2353302110     0.3881305121
Bq        -0.0789073698     0.2500706662     0.6846043559
Bq        -0.0210035576     0.2304167259     0.2893058975
Bq        -0.0933833228     0.2549841513     0.7834289705
Bq        -0.0065276045     0.2255032408     0.1904812830
Bq        -0.1078592758     0.2598976364     0.8822535851
Bq         0.0079483485     0.2205897557     0.0916566684
Bq        -0.1223352289     0.2648111215     0.9810781996
Bq         0.0224243016     0.2156762706    -0.0071679462
Bq        -0.0499554637     0.2402436960     0.4869551267
Bq        -0.0637192828     0.3450363965     0.5809181365
Bq        -0.0347673767     0.3352094263     0.3832689074
Bq        -0.0781952358     0.3499498816     0.6797427511
Bq        -0.0202914236     0.3302959413     0.2844442928
Bq        -0.0926711889     0.3548633667     0.7785673657
Bq        -0.0058154706     0.3253824562     0.1856196782
Bq        -0.1071471419     0.3597768518     0.8773919803
Bq         0.0086604824     0.3204689711     0.0867950636
Bq        -0.1216230950     0.3646903368     0.9762165949
Bq         0.0231364355     0.3155554860    -0.0120295510
Bq        -0.0492433297     0.3401229114     0.4820935219
Bq        -0.0630071488     0.4449156119     0.5760565318
Bq        -0.0340552427     0.4350886417     0.3784073026
Bq        -0.0774831019     0.4498290970     0.6748811464
Bq        -0.0195792897     0.4301751566     0.2795826880
Bq        -0.0919590549     0.4547425820     0.7737057609
Bq        -0.0051033367     0.4252616716     0.1807580734
Bq        -0.1064350080     0.4596560671     0.8725303755
Bq         0.0093726164     0.4203481865     0.0819334588
Bq        -0.1209109610     0.4645695522     0.9713549901
Bq         0.0238485694     0.4154347014    -0.0168911557
Bq        -0.0485311958     0.4400021268     0.4772319172
Bq        -0.0622950149     0.5447948273     0.5711949270
Bq        -0.0333431088     0.5349678571     0.3735456978
Bq        -0.0767709679     0.5497083123     0.6700195416
Bq        -0.0188671558     0.5300543720     0.2747210832
Bq        -0.0912469210     0.5546217974     0.7688441562
Bq        -0.0043912027     0.5251408869     0.1758964687
Bq        -0.1057228740     0.5595352825     0.8676687708
Bq         0.0100847503     0.5202274018     0.0770718541
Bq        -0.1201988271     0.5644487676     0.9664933853
Bq         0.0245607034     0.5153139168    -0.0217527605
Bq        -0.0478190618     0.5398813422     0.4723703124
Bq        -0.0615828809     0.6446740426     0.5663333222
Bq        -0.0326309749     0.6348470725     0.3686840931
Bq        -0.0760588340     0.6495875277     0.6651579368
Bq        -0.0181550218     0.6299335874     0.2698594785
Bq        -0.0905347870     0.6545010128     0.7639825514
Bq        -0.0036790688     0.6250201023     0.1710348639
Bq        -0.1050107401     0.6594144979     0.8628071660
Bq         0.0107968843     0.6201066172     0.0722102493
Bq        -0.1194866931     0.6643279830     0.9616317806
Bq         0.0252728373     0.6151931321    -0.0266143653
Bq        -0.0471069279     0.6397605576     0.4675087076
Bq        -0.0608707470     0.7445532580     0.5614717175
Bq        -0.0319188409     0.7347262878     0.3638224883
Bq        -0.0753467001     0.7494667431     0.6602963321
Bq        -0.0174428879     0.7298128028     0.2649978737
Bq        -0.0898226531     0.7543802282     0.7591209466
Bq        -0.0029669348     0.7248993177     0.1661732591
Bq        -0.1042986061     0.7592937133     0.8579455612
Bq         0.0115090182     0.7199858326     0.0673486445
Bq        -0.1187745592     0.7642071983     0.9567701758
Bq         0.0259849713     0.7150723475    -0.0314759700
Bq        -0.0463947940     0.7396397729     0.4626471029
Bq        -0.0601586131     0.8444324734     0.5566101127
Bq        -0.0312067070     0.8346055032     0.3589608835
Bq        -0.0746345661     0.8493459585     0.6554347273
Bq        -0.0167307539     0.8296920181     0.2601362689
Bq        -0.0891105192     0.8542594436     0.7542593419
Bq        -0.0022548009     0.8247785331     0.1613116544
Bq        -0.1035864722     0.8591729286     0.8530839565
Bq         0.0122211522     0.8198650480     0.0624870398
Bq        -0.1180624252     0.8640864137     0.9519085710
Bq         0.0266971052     0.8149515629    -0.0363375748
Bq        -0.0456826600     0.8395189883     0.4577854981
Bq        -0.0594464791     0.9443116888     0.5517485079
Bq        -0.0304945730     0.9344847186     0.3540992788
Bq        -0.0739224322     0.9492251739     0.6505731225
Bq        -0.0160186200     0.9295712335     0.2552746642
Bq        -0.0883983852     0.9541386589     0.7493977371
Bq        -0.0015426669     0.9246577484     0.1564500496
Bq        -0.1028743383     0.9590521440     0.8482223517
Bq         0.0129332861     0.9197442634     0.0576254350

1
2
3
4
5
6
7
8
9
10
11
12
13
14
15
16
17
18
19
20
21
22
23
24
25
26
27
28
29
30
31
32
33
34
35
36
37
38
39
40
41
42
43
44
45
46
47
48
49
50
51
52
53
54
55
56
57
58
59
60
61
62
63
64
65
66
67
68
69
70
71
72
73
74
75
76
77
78
79
80
81
82
83
84
85
86
87
88
89
90
91
92
93
94
95
96
97
98
99
100
101
102
103
104
105
106
107
108
109
110
111
112
113
114
115
116
117
118
119
120
121
122
123
124
125
126
127
128
129
130
131
132
133
134
135
136
137
138
139
140
141
142
143
144
145
146
147
148
149
150
151
152
153
154
155
156
157
158
159
160
161
162
163
164
165
166
167
168
169
170
171
172
173
174
175
176
177
178
179
180
181
182
183
184
185
186
187
188
189
190
191
192
193
194
195
196
197
198
199
200
201
202
203
204
205
206
207
208
209
210
211
212
213
214
215
216
217
218
219
220
221
222
223
224
225
226
227
228
229
230
231
232
233
234
235
236

