%nproc=8
%mem=1000MB
# rb3lyp/6-311+g** NMR geom=connectivity

Title

0 1
C    -4.0500558   -0.5771862    0.8136712
H    -5.0263804   -1.0082727    1.0024760
C    -3.9381552    0.6617804    0.2400876
H    -4.8252424    1.2338890   -0.0111295
C    -2.6768410    1.2433246    0.0057578
C    -1.4974121    0.5051527    0.2848253
C    -1.6508332   -0.7338728    0.9404026
H    -0.7713646   -1.2730967    1.2633753
C    -2.8898548   -1.2624035    1.1994307
H    -2.9683706   -2.2124563    1.7152676
C    -2.5773185    2.5963696   -0.4192930
H    -3.4870728    3.1412239   -0.6474055
C    -1.3741895    3.2147896   -0.4364030
H    -1.2997315    4.2742019   -0.6578144
C    -0.1719488    2.4994090   -0.1734588
C    -0.2043917    1.1018437    0.0192689
C     1.0513491    3.2042560   -0.0676222
H     1.0427344    4.2819499   -0.1896997
C     2.1942091    2.5487446    0.2579577
H     3.1168527    3.0912848    0.4334727
C     2.2216473    1.1336562    0.2934990
C     1.0486931    0.3945528    0.0302412
C     3.4483363    0.4614633    0.5573939
H     4.3095794    1.0606054    0.8334846
C     3.5427346   -0.8855926    0.4749463
H     4.4731467   -1.3939704    0.7038822
C     2.4490052   -1.6474447   -0.0196319
C     1.2150704   -1.0057258   -0.3013573
C     0.2531113   -1.7434440   -1.0216591
H    -0.6541356   -1.2535051   -1.3462847
C     0.4494193   -3.0628597   -1.3413779
H    -0.3083162   -3.5944309   -1.9054060
C     1.6251726   -3.7207967   -0.9552541
H     1.7670048   -4.7687404   -1.1927019
C     2.6109872   -3.0144177   -0.3183050
H     3.5525612   -3.4902813   -0.0646367
Bq        -0.4972478667    -1.4018516062    -1.2443327980
Bq        -0.6965566856    -1.5349298617    -0.8055091744
Bq        -0.7474249228    -1.4651525301    -0.6935111993
Bq        -0.6677013952    -1.4119212279    -0.8690406487
Bq        -0.7872866865    -1.4917681812    -0.6057464745
Bq        -0.6278396314    -1.3853055768    -0.9568053734
Bq        -0.8271484503    -1.5183838324    -0.5179817498
Bq        -0.5879778676    -1.3586899257    -1.0445700981
Bq        -0.8670102141    -1.5449994835    -0.4302170251
Bq        -0.5481161038    -1.3320742746    -1.1323348228
Bq        -0.9068719779    -1.5716151346    -0.3424523004
Bq        -0.5082543400    -1.3054586235    -1.2200995475
Bq        -0.7075631590    -1.4385368790    -0.7812759240
Bq        -0.7584313961    -1.3687595474    -0.6692779488
Bq        -0.6787078686    -1.3155282452    -0.8448073982
Bq        -0.7982931599    -1.3953751985    -0.5815132241
Bq        -0.6388461048    -1.2889125941    -0.9325721229
Bq        -0.8381549237    -1.4219908496    -0.4937484994
Bq        -0.5989843410    -1.2622969430    -1.0203368476
Bq        -0.8780166875    -1.4486065008    -0.4059837747
Bq        -0.5591225772    -1.2356812919    -1.1081015724
Bq        -0.9178784513    -1.4752221519    -0.3182190499
Bq        -0.5192608134    -1.2090656408    -1.1958662971
Bq        -0.7185696323    -1.3421438963    -0.7570426735
Bq        -0.7694378695    -1.2723665647    -0.6450446983
Bq        -0.6897143419    -1.2191352625    -0.8205741478
Bq        -0.8092996333    -1.2989822158    -0.5572799736
Bq        -0.6498525781    -1.1925196114    -0.9083388725
Bq        -0.8491613971    -1.3255978669    -0.4695152489
Bq        -0.6099908143    -1.1659039603    -0.9961035972
Bq        -0.8890231609    -1.3522135180    -0.3817505242
Bq        -0.5701290506    -1.1392883092    -1.0838683219
Bq        -0.9288849246    -1.3788291691    -0.2939857995
Bq        -0.5302672868    -1.1126726581    -1.1716330466
Bq        -0.7295761057    -1.2457509136    -0.7328094230
Bq        -0.7804443429    -1.1759735820    -0.6208114479
Bq        -0.7007208153    -1.1227422798    -0.7963408973
Bq        -0.8203061067    -1.2025892331    -0.5330467232
Bq        -0.6608590515    -1.0961266287    -0.8841056220
Bq        -0.8601678704    -1.2292048842    -0.4452819985
Bq        -0.6209972877    -1.0695109776    -0.9718703467
Bq        -0.9000296342    -1.2558205353    -0.3575172737
Bq        -0.5811355239    -1.0428953265    -1.0596350714
Bq        -0.9398913980    -1.2824361864    -0.2697525490
Bq        -0.5412737601    -1.0162796754    -1.1473997962
Bq        -0.7405825791    -1.1493579309    -0.7085761726
Bq        -0.7914508162    -1.0795805993    -0.5965781974
Bq        -0.7117272887    -1.0263492971    -0.7721076468
Bq        -0.8313125800    -1.1061962504    -0.5088134727
Bq        -0.6718655249    -0.9997336460    -0.8598723716
Bq        -0.8711743438    -1.1328119015    -0.4210487480
Bq        -0.6320037611    -0.9731179949    -0.9476370963
Bq        -0.9110361076    -1.1594275526    -0.3332840233
Bq        -0.5921419973    -0.9465023438    -1.0354018210
Bq        -0.9508978714    -1.1860432037    -0.2455192986
Bq        -0.5522802335    -0.9198866927    -1.1231665457
Bq        -0.7515890525    -1.0529649482    -0.6843429221
Bq        -0.8024572896    -0.9831876166    -0.5723449470
Bq        -0.7227337620    -0.9299563144    -0.7478743964
Bq        -0.8423190534    -1.0098032677    -0.4845802223
Bq        -0.6828719983    -0.9033406633    -0.8356391211
Bq        -0.8821808172    -1.0364189188    -0.3968154975
Bq        -0.6430102345    -0.8767250122    -0.9234038458
Bq        -0.9220425810    -1.0630345699    -0.3090507728
Bq        -0.6031484707    -0.8501093610    -1.0111685705
Bq        -0.9619043448    -1.0896502210    -0.2212860481
Bq        -0.5632867069    -0.8234937099    -1.0989332952
Bq        -0.7625955258    -0.9565719655    -0.6601096717
Bq        -0.8134637630    -0.8867946339    -0.5481116965
Bq        -0.7337402354    -0.8335633317    -0.7236411459
Bq        -0.8533255268    -0.9134102850    -0.4603469718
Bq        -0.6938784716    -0.8069476805    -0.8114058706
Bq        -0.8931872906    -0.9400259361    -0.3725822471
Bq        -0.6540167078    -0.7803320294    -0.8991705954
Bq        -0.9330490543    -0.9666415872    -0.2848175224
Bq        -0.6141549441    -0.7537163783    -0.9869353201
Bq        -0.9729108181    -0.9932572383    -0.1970527977
Bq        -0.5742931803    -0.7271007272    -1.0747000448
Bq        -0.7736019992    -0.8601789828    -0.6358764212
Bq        -0.8244702364    -0.7904016512    -0.5238784460
Bq        -0.7447467088    -0.7371703489    -0.6994078955
Bq        -0.8643320001    -0.8170173023    -0.4361137213
Bq        -0.7048849450    -0.7105546978    -0.7871726202
Bq        -0.9041937639    -0.8436329534    -0.3483489966
Bq        -0.6650231812    -0.6839390467    -0.8749373449
Bq        -0.9440555277    -0.8702486045    -0.2605842719
Bq        -0.6251614174    -0.6573233956    -0.9627020696
Bq        -0.9839172915    -0.8968642556    -0.1728195472
Bq        -0.5852996536    -0.6307077445    -1.0504667943
Bq        -0.7846084726    -0.7637860000    -0.6116431708
Bq        -0.8354767097    -0.6940086684    -0.4996451956
Bq        -0.7557531822    -0.6407773662    -0.6751746450
Bq        -0.8753384735    -0.7206243196    -0.4118804709
Bq        -0.7158914184    -0.6141617151    -0.7629393697
Bq        -0.9152002373    -0.7472399707    -0.3241157462
Bq        -0.6760296546    -0.5875460640    -0.8507040944
Bq        -0.9550620011    -0.7738556218    -0.2363510215
Bq        -0.6361678908    -0.5609304129    -0.9384688192
Bq        -0.9949237649    -0.8004712729    -0.1485862967
Bq        -0.5963061270    -0.5343147618    -1.0262335439
Bq        -0.7956149459    -0.6673930173    -0.5874099203
Bq        -0.8464831831    -0.5976156857    -0.4754119451
Bq        -0.7667596555    -0.5443843835    -0.6509413946
Bq        -0.8863449469    -0.6242313368    -0.3876472204
Bq        -0.7268978917    -0.5177687324    -0.7387061193
Bq        -0.9262067107    -0.6508469879    -0.2998824957
Bq        -0.6870361280    -0.4911530813    -0.8264708440
Bq        -0.9660684745    -0.6774626391    -0.2121177710
Bq        -0.6471743642    -0.4645374302    -0.9142355687
Bq        -1.0059302383    -0.7040782902    -0.1243530463
Bq        -0.6073126004    -0.4379217791    -1.0020002934
Bq        -0.8066214193    -0.5710000346    -0.5631766698
Bq        -0.8574896565    -0.5012227030    -0.4511786947
Bq        -0.7777661289    -0.4479914008    -0.6267081441
Bq        -0.8973514203    -0.5278383541    -0.3634139700
Bq        -0.7379043651    -0.4213757497    -0.7144728688
Bq        -0.9372131841    -0.5544540052    -0.2756492452
Bq        -0.6980426013    -0.3947600986    -0.8022375935
Bq        -0.9770749478    -0.5810696563    -0.1878845205
Bq        -0.6581808375    -0.3681444475    -0.8900023182
Bq        -1.0169367116    -0.6076853074    -0.1001197958
Bq        -0.6183190738    -0.3415287964    -0.9777670429
Bq        -0.8176278927    -0.4746070519    -0.5389434194
Bq        -0.8684961298    -0.4048297203    -0.4269454442
Bq        -0.7887726023    -0.3515984181    -0.6024748936
Bq        -0.9083578936    -0.4314453714    -0.3391807195
Bq        -0.7489108385    -0.3249827670    -0.6902396184
Bq        -0.9482196574    -0.4580610225    -0.2514159948
Bq        -0.7090490747    -0.2983671159    -0.7780043431
Bq        -0.9880814212    -0.4846766736    -0.1636512701
Bq        -0.6691873109    -0.2717514648    -0.8657690678
Bq        -1.0279431850    -0.5112923247    -0.0758865454
Bq        -0.6293255471    -0.2451358137    -0.9535337925
Bq        -0.8286343661    -0.3782140692    -0.5147101689
Bq        -0.8795026032    -0.3084367376    -0.4027121938
Bq        -0.7997790756    -0.2552054354    -0.5782416432
Bq        -0.9193643670    -0.3350523887    -0.3149474690
Bq        -0.7599173119    -0.2285897843    -0.6660063679
Bq        -0.9592261308    -0.3616680398    -0.2271827443
Bq        -0.7200555481    -0.2019741332    -0.7537710926
Bq        -0.9990878946    -0.3882836909    -0.1394180196
Bq        -0.6801937843    -0.1753584821    -0.8415358173
Bq        -1.0389496584    -0.4148993420    -0.0516532949
Bq        -0.6403320205    -0.1487428310    -0.9293005420
Bq        -0.8396408394    -0.2818210865    -0.4904769185
Bq        -0.8905090766    -0.2120437549    -0.3784789433
Bq        -0.8107855490    -0.1588124527    -0.5540083927
Bq        -0.9303708404    -0.2386594060    -0.2907142186
Bq        -0.7709237852    -0.1321968016    -0.6417731174
Bq        -0.9702326042    -0.2652750571    -0.2029494939
Bq        -0.7310620214    -0.1055811505    -0.7295378421
Bq        -1.0100943680    -0.2918907082    -0.1151847692
Bq        -0.6912002577    -0.0789654993    -0.8173025669
Bq        -1.0499561317    -0.3185063593    -0.0274200444
Bq        -0.6513384939    -0.0523498482    -0.9050672916
Bq        -0.8506473128    -0.1854281038    -0.4662436680
Bq        -0.9015155500    -0.1156507722    -0.3542456928
Bq        -0.8217920224    -0.0624194700    -0.5297751423
Bq        -0.9413773138    -0.1422664233    -0.2664809681
Bq        -0.7819302586    -0.0358038189    -0.6175398670
Bq        -0.9812390775    -0.1688820744    -0.1787162434
Bq        -0.7420684948    -0.0091881677    -0.7053045917
Bq        -1.0211008413    -0.1954977255    -0.0909515187
Bq        -0.7022067310     0.0174274834    -0.7930693164
Bq        -1.0609626051    -0.2221133766    -0.0031867940
Bq        -0.6623449672     0.0440431345    -0.8808340411
Bq        -0.8616537862    -0.0890351211    -0.4420104176
Bq        -0.2601430080    -4.9352999078    -1.5245548281
Bq        -0.1804194805    -4.8820686056    -1.7000842775
Bq        -0.3000047718    -4.9619155589    -1.4367901034
Bq        -0.1405577167    -4.8554529545    -1.7878490023
Bq        -0.3398665356    -4.9885312100    -1.3490253787
Bq        -0.1006959529    -4.8288373034    -1.8756137270
Bq        -0.3797282994    -5.0151468611    -1.2612606540
Bq        -0.0608341891    -4.8022216522    -1.9633784517
Bq        -0.4195900632    -5.0417625122    -1.1734959293
Bq        -0.0209724253    -4.7756060011    -2.0511431764
Bq        -0.2202812443    -4.9086842567    -1.6123195528
Bq        -0.2711494814    -4.8389069251    -1.5003215777
Bq        -0.1914259538    -4.7856756229    -1.6758510271
Bq        -0.3110112452    -4.8655225762    -1.4125568529
Bq        -0.1515641901    -4.7590599717    -1.7636157518
Bq        -0.3508730090    -4.8921382273    -1.3247921282
Bq        -0.1117024263    -4.7324443206    -1.8513804765
Bq        -0.3907347728    -4.9187538784    -1.2370274035
Bq        -0.0718406625    -4.7058286695    -1.9391452012
Bq        -0.4305965366    -4.9453695295    -1.1492626788
Bq        -0.0319788987    -4.6792130184    -2.0269099259
Bq        -0.2312877176    -4.8122912740    -1.5880863024
Bq        -0.2821559548    -4.7425139424    -1.4760883272
Bq        -0.2024324272    -4.6892826401    -1.6516177766
Bq        -0.3220177186    -4.7691295935    -1.3883236025
Bq        -0.1625706634    -4.6626669890    -1.7393825013
Bq        -0.3618794824    -4.7957452446    -1.3005588778
Bq        -0.1227088996    -4.6360513379    -1.8271472260
Bq        -0.4017412462    -4.8223608957    -1.2127941531
Bq        -0.0828471359    -4.6094356868    -1.9149119508
Bq        -0.4416030099    -4.8489765468    -1.1250294283
Bq        -0.0429853721    -4.5828200357    -2.0026766755
Bq        -0.2422941910    -4.7158982912    -1.5638530519

1
2
3
4
5
6
7
8
9
10
11
12
13
14
15
16
17
18
19
20
21
22
23
24
25
26
27
28
29
30
31
32
33
34
35
36
37
38
39
40
41
42
43
44
45
46
47
48
49
50
51
52
53
54
55
56
57
58
59
60
61
62
63
64
65
66
67
68
69
70
71
72
73
74
75
76
77
78
79
80
81
82
83
84
85
86
87
88
89
90
91
92
93
94
95
96
97
98
99
100
101
102
103
104
105
106
107
108
109
110
111
112
113
114
115
116
117
118
119
120
121
122
123
124
125
126
127
128
129
130
131
132
133
134
135
136
137
138
139
140
141
142
143
144
145
146
147
148
149
150
151
152
153
154
155
156
157
158
159
160
161
162
163
164
165
166
167
168
169
170
171
172
173
174
175
176
177
178
179
180
181
182
183
184
185
186
187
188
189
190
191
192
193
194
195
196
197
198
199
200
201
202
203
204
205
206
207
208
209
210
211
212
213
214
215
216
217
218
219
220
221
222
223
224
225
226
227
228
229
230
231
232
233
234
235
236

