%nproc=8
%mem=1000MB
# rb3lyp/6-311+g** NMR geom=connectivity

Title

0 1
C    -4.0500558   -0.5771862    0.8136712
H    -5.0263804   -1.0082727    1.0024760
C    -3.9381552    0.6617804    0.2400876
H    -4.8252424    1.2338890   -0.0111295
C    -2.6768410    1.2433246    0.0057578
C    -1.4974121    0.5051527    0.2848253
C    -1.6508332   -0.7338728    0.9404026
H    -0.7713646   -1.2730967    1.2633753
C    -2.8898548   -1.2624035    1.1994307
H    -2.9683706   -2.2124563    1.7152676
C    -2.5773185    2.5963696   -0.4192930
H    -3.4870728    3.1412239   -0.6474055
C    -1.3741895    3.2147896   -0.4364030
H    -1.2997315    4.2742019   -0.6578144
C    -0.1719488    2.4994090   -0.1734588
C    -0.2043917    1.1018437    0.0192689
C     1.0513491    3.2042560   -0.0676222
H     1.0427344    4.2819499   -0.1896997
C     2.1942091    2.5487446    0.2579577
H     3.1168527    3.0912848    0.4334727
C     2.2216473    1.1336562    0.2934990
C     1.0486931    0.3945528    0.0302412
C     3.4483363    0.4614633    0.5573939
H     4.3095794    1.0606054    0.8334846
C     3.5427346   -0.8855926    0.4749463
H     4.4731467   -1.3939704    0.7038822
C     2.4490052   -1.6474447   -0.0196319
C     1.2150704   -1.0057258   -0.3013573
C     0.2531113   -1.7434440   -1.0216591
H    -0.6541356   -1.2535051   -1.3462847
C     0.4494193   -3.0628597   -1.3413779
H    -0.3083162   -3.5944309   -1.9054060
C     1.6251726   -3.7207967   -0.9552541
H     1.7670048   -4.7687404   -1.1927019
C     2.6109872   -3.0144177   -0.3183050
H     3.5525612   -3.4902813   -0.0646367
Bq        -0.4809706058     1.5036728754    -0.1494632202
Bq        -0.4827405836     1.7210864604     0.3007902642
Bq        -0.4829236469     1.8546205701     0.3473585800
Bq        -0.4822156558     1.7676551361     0.1672571863
Bq        -0.4832776425     1.8981032871     0.4374092769
Bq        -0.4818616602     1.7241724191     0.0772064894
Bq        -0.4836316381     1.9415860041     0.5274599738
Bq        -0.4815076646     1.6806897021    -0.0128442075
Bq        -0.4839856337     1.9850687211     0.6175106707
Bq        -0.4811536691     1.6372069851    -0.1028949044
Bq        -0.4843396292     2.0285514381     0.7075613676
Bq        -0.4807996735     1.5937242681    -0.1929456012
Bq        -0.4825696514     1.8111378531     0.2573078832
Bq        -0.4827527147     1.9446719628     0.3038761990
Bq        -0.4820447235     1.8577065288     0.1237748053
Bq        -0.4831067102     1.9881546798     0.3939268959
Bq        -0.4816907279     1.8142238118     0.0337241084
Bq        -0.4834607058     2.0316373968     0.4839775928
Bq        -0.4813367324     1.7707410947    -0.0563265885
Bq        -0.4838147014     2.0751201138     0.5740282897
Bq        -0.4809827368     1.7272583777    -0.1463772854
Bq        -0.4841686970     2.1186028308     0.6640789865
Bq        -0.4806287412     1.6837756607    -0.2364279823
Bq        -0.4823987191     1.9011892458     0.2138255021
Bq        -0.4825817824     2.0347233554     0.2603938180
Bq        -0.4818737912     1.9477579214     0.0802924242
Bq        -0.4829357780     2.0782060724     0.3504445149
Bq        -0.4815197957     1.9042752044    -0.0097582727
Bq        -0.4832897735     2.1216887894     0.4404952117
Bq        -0.4811658001     1.8607924874    -0.0998089695
Bq        -0.4836437691     2.1651715065     0.5305459086
Bq        -0.4808118045     1.8173097704    -0.1898596664
Bq        -0.4839977647     2.2086542235     0.6205966055
Bq        -0.4804578089     1.7738270534    -0.2799103633
Bq        -0.4822277868     1.9912406384     0.1703431211
Bq        -0.4824108501     2.1247747481     0.2169114370
Bq        -0.4817028590     2.0378093141     0.0368100432
Bq        -0.4827648457     2.1682574651     0.3069621338
Bq        -0.4813488634     1.9943265971    -0.0532406537
Bq        -0.4831188413     2.2117401821     0.3970128307
Bq        -0.4809948678     1.9508438801    -0.1432913506
Bq        -0.4834728368     2.2552228991     0.4870635276
Bq        -0.4806408722     1.9073611631    -0.2333420475
Bq        -0.4838268324     2.2987056161     0.5771142245
Bq        -0.4802868767     1.8638784461    -0.3233927443
Bq        -0.4820568545     2.0812920311     0.1268607401
Bq        -0.4822399178     2.2148261408     0.1734290559
Bq        -0.4815319267     2.1278607068    -0.0066723378
Bq        -0.4825939134     2.2583088578     0.2634797528
Bq        -0.4811779311     2.0843779898    -0.0967230347
Bq        -0.4829479090     2.3017915748     0.3535304497
Bq        -0.4808239355     2.0408952728    -0.1867737316
Bq        -0.4833019046     2.3452742918     0.4435811466
Bq        -0.4804699400     1.9974125558    -0.2768244285
Bq        -0.4836559001     2.3887570088     0.5336318434
Bq        -0.4801159444     1.9539298388    -0.3668751254
Bq        -0.4818859223     2.1713434238     0.0833783590
Bq        -0.4820689856     2.3048775334     0.1299466749
Bq        -0.4813609944     2.2179120994    -0.0501547189
Bq        -0.4824229811     2.3483602505     0.2199973718
Bq        -0.4810069988     2.1744293824    -0.1402054158
Bq        -0.4827769767     2.3918429675     0.3100480687
Bq        -0.4806530033     2.1309466654    -0.2302561126
Bq        -0.4831309723     2.4353256845     0.4000987655
Bq        -0.4802990077     2.0874639484    -0.3203068095
Bq        -0.4834849679     2.4788084015     0.4901494624
Bq        -0.4799450121     2.0439812314    -0.4103575064
Bq        -0.4817149900     2.2613948164     0.0398959780
Bq        -0.4818980533     2.3949289261     0.0864642939
Bq        -0.4811900621     2.3079634921    -0.0936370999
Bq        -0.4822520489     2.4384116431     0.1765149907
Bq        -0.4808360666     2.2644807751    -0.1836877968
Bq        -0.4826060444     2.4818943601     0.2665656876
Bq        -0.4804820710     2.2209980581    -0.2737384937
Bq        -0.4829600400     2.5253770771     0.3566163845
Bq        -0.4801280754     2.1775153411    -0.3637891906
Bq        -0.4833140356     2.5688597941     0.4466670814
Bq        -0.4797740798     2.1340326241    -0.4538398874
Bq        -0.4815440577     2.3514462091    -0.0035864030
Bq        -0.4817271210     2.4849803188     0.0429819128
Bq        -0.4810191299     2.3980148848    -0.1371194809
Bq        -0.4820811166     2.5284630358     0.1330326097
Bq        -0.4806651343     2.3545321678    -0.2271701778
Bq        -0.4824351122     2.5719457528     0.2230833066
Bq        -0.4803111387     2.3110494508    -0.3172208747
Bq        -0.4827891077     2.6154284698     0.3131340035
Bq        -0.4799571431     2.2675667338    -0.4072715716
Bq        -0.4831431033     2.6589111868     0.4031847004
Bq        -0.4796031476     2.2240840168    -0.4973222685
Bq        -0.4813731254     2.4414976018    -0.0470687841
Bq        -0.3902745074    -2.0175893147     2.2174940684
Bq        -0.3895665163    -2.1045547487     2.0373926746
Bq        -0.3906285030    -1.9741065977     2.3075447653
Bq        -0.3892125207    -2.1480374658     1.9473419777
Bq        -0.3909824986    -1.9306238807     2.3975954622
Bq        -0.3888585251    -2.1915201828     1.8572912809
Bq        -0.3913364941    -1.8871411637     2.4876461590
Bq        -0.3885045295    -2.2350028998     1.7672405840
Bq        -0.3916904897    -1.8436584467     2.5776968559
Bq        -0.3881505340    -2.2784856168     1.6771898871
Bq        -0.3899205118    -2.0610720317     2.1274433715
Bq        -0.3901035751    -1.9275379221     2.1740116874
Bq        -0.3893955840    -2.0145033561     1.9939102936
Bq        -0.3904575707    -1.8840552051     2.2640623842
Bq        -0.3890415884    -2.0579860731     1.9038595967
Bq        -0.3908115663    -1.8405724881     2.3541130811
Bq        -0.3886875928    -2.1014687901     1.8138088998
Bq        -0.3911655619    -1.7970897711     2.4441637780
Bq        -0.3883335973    -2.1449515071     1.7237582029
Bq        -0.3915195574    -1.7536070540     2.5342144749
Bq        -0.3879796017    -2.1884342241     1.6337075061
Bq        -0.3897495796    -1.9710206391     2.0839609905
Bq        -0.3899326429    -1.8374865294     2.1305293063
Bq        -0.3892246517    -1.9244519634     1.9504279126
Bq        -0.3902866384    -1.7940038124     2.2205800032
Bq        -0.3888706561    -1.9679346804     1.8603772157
Bq        -0.3906406340    -1.7505210954     2.3106307001
Bq        -0.3885166606    -2.0114173974     1.7703265188
Bq        -0.3909946296    -1.7070383784     2.4006813970
Bq        -0.3881626650    -2.0549001144     1.6802758219
Bq        -0.3913486252    -1.6635556614     2.4907320939
Bq        -0.3878086694    -2.0983828314     1.5902251250
Bq        -0.3895786473    -1.8809692464     2.0404786094
Bq        -0.3897617106    -1.7474351367     2.0870469253
Bq        -0.3890537194    -1.8344005707     1.9069455315
Bq        -0.3901157062    -1.7039524197     2.1770976222
Bq        -0.3886997239    -1.8778832877     1.8168948346
Bq        -0.3904697017    -1.6604697027     2.2671483191
Bq        -0.3883457283    -1.9213660047     1.7268441378
Bq        -0.3908236973    -1.6169869857     2.3571990159
Bq        -0.3879917327    -1.9648487217     1.6367934409
Bq        -0.3911776929    -1.5735042687     2.4472497128
Bq        -0.3876377371    -2.0083314388     1.5467427440
Bq        -0.3894077150    -1.7909178537     1.9969962284
Bq        -0.3895907783    -1.6573837441     2.0435645443
Bq        -0.3888827872    -1.7443491781     1.8634631505
Bq        -0.3899447739    -1.6139010270     2.1336152411
Bq        -0.3885287916    -1.7878318951     1.7734124536
Bq        -0.3902987695    -1.5704183100     2.2236659380
Bq        -0.3881747960    -1.8313146121     1.6833617567
Bq        -0.3906527650    -1.5269355930     2.3137166349
Bq        -0.3878208004    -1.8747973291     1.5933110598
Bq        -0.3910067606    -1.4834528760     2.4037673318
Bq        -0.3874668049    -1.9182800461     1.5032603630
Bq        -0.3892367827    -1.7008664611     1.9535138474
Bq        -0.3894198460    -1.5673323514     2.0000821632
Bq        -0.3887118549    -1.6542977854     1.8199807695
Bq        -0.3897738416    -1.5238496344     2.0901328601
Bq        -0.3883578593    -1.6977805024     1.7299300726
Bq        -0.3901278372    -1.4803669174     2.1801835570
Bq        -0.3880038637    -1.7412632194     1.6398793757
Bq        -0.3904818328    -1.4368842004     2.2702342539
Bq        -0.3876498682    -1.7847459364     1.5498286788
Bq        -0.3908358283    -1.3934014834     2.3602849508
Bq        -0.3872958726    -1.8282286534     1.4597779819
Bq        -0.3890658505    -1.6108150684     1.9100314663
Bq        -0.3892489138    -1.4772809587     1.9565997822
Bq        -0.3885409226    -1.5642463927     1.7764983884
Bq        -0.3896029093    -1.4337982417     2.0466504791
Bq        -0.3881869270    -1.6077291097     1.6864476915
Bq        -0.3899569049    -1.3903155247     2.1367011760
Bq        -0.3878329315    -1.6512118267     1.5963969947
Bq        -0.3903109005    -1.3468328077     2.2267518728
Bq        -0.3874789359    -1.6946945437     1.5063462978
Bq        -0.3906648961    -1.3033500907     2.3168025697
Bq        -0.3871249403    -1.7381772607     1.4162956009
Bq        -0.3888949182    -1.5207636757     1.8665490853
Bq        -0.3890779815    -1.3872295660     1.9131174012
Bq        -0.3883699903    -1.4741950001     1.7330160074
Bq        -0.3894319771    -1.3437468490     2.0031680980
Bq        -0.3880159948    -1.5176777171     1.6429653105
Bq        -0.3897859726    -1.3002641320     2.0932187949
Bq        -0.3876619992    -1.5611604341     1.5529146136
Bq        -0.3901399682    -1.2567814150     2.1832694918
Bq        -0.3873080036    -1.6046431511     1.4628639167
Bq        -0.3904939638    -1.2132986980     2.2733201887
Bq        -0.3869540080    -1.6481258681     1.3728132199
Bq        -0.3887239859    -1.4307122830     1.8230667043
Bq        -0.3889070492    -1.2971781734     1.8696350201
Bq        -0.3881990581    -1.3841436074     1.6895336264
Bq        -0.3892610448    -1.2536954564     1.9596857170
Bq        -0.3878450625    -1.4276263244     1.5994829295
Bq        -0.3896150404    -1.2102127394     2.0497364139
Bq        -0.3874910669    -1.4711090414     1.5094322326
Bq        -0.3899690359    -1.1667300224     2.1397871108
Bq        -0.3871370713    -1.5145917584     1.4193815357
Bq        -0.3903230315    -1.1232473054     2.2298378077
Bq        -0.3867830758    -1.5580744754     1.3293308388
Bq        -0.3885530536    -1.3406608904     1.7795843232
Bq        -0.3887361169    -1.2071267807     1.8261526391
Bq        -0.3880281258    -1.2940922147     1.6460512453
Bq        -0.3890901125    -1.1636440637     1.9162033360
Bq        -0.3876741302    -1.3375749317     1.5560005484
Bq        -0.3894441081    -1.1201613467     2.0062540329
Bq        -0.3873201346    -1.3810576487     1.4659498516
Bq        -0.3897981037    -1.0766786297     2.0963047297
Bq        -0.3869661391    -1.4245403657     1.3758991547
Bq        -0.3901520992    -1.0331959127     2.1863554266
Bq        -0.3866121435    -1.4680230827     1.2858484578
Bq        -0.3883821214    -1.2506094977     1.7361019422

1
2
3
4
5
6
7
8
9
10
11
12
13
14
15
16
17
18
19
20
21
22
23
24
25
26
27
28
29
30
31
32
33
34
35
36
37
38
39
40
41
42
43
44
45
46
47
48
49
50
51
52
53
54
55
56
57
58
59
60
61
62
63
64
65
66
67
68
69
70
71
72
73
74
75
76
77
78
79
80
81
82
83
84
85
86
87
88
89
90
91
92
93
94
95
96
97
98
99
100
101
102
103
104
105
106
107
108
109
110
111
112
113
114
115
116
117
118
119
120
121
122
123
124
125
126
127
128
129
130
131
132
133
134
135
136
137
138
139
140
141
142
143
144
145
146
147
148
149
150
151
152
153
154
155
156
157
158
159
160
161
162
163
164
165
166
167
168
169
170
171
172
173
174
175
176
177
178
179
180
181
182
183
184
185
186
187
188
189
190
191
192
193
194
195
196
197
198
199
200
201
202
203
204
205
206
207
208
209
210
211
212
213
214
215
216
217
218
219
220
221
222
223
224
225
226
227
228
229
230
231
232
233
234
235
236

