%nproc=8
%mem=1000MB
# rb3lyp/6-311+g** NMR geom=connectivity

Title

0 1
C    -4.0500558   -0.5771862    0.8136712
H    -5.0263804   -1.0082727    1.0024760
C    -3.9381552    0.6617804    0.2400876
H    -4.8252424    1.2338890   -0.0111295
C    -2.6768410    1.2433246    0.0057578
C    -1.4974121    0.5051527    0.2848253
C    -1.6508332   -0.7338728    0.9404026
H    -0.7713646   -1.2730967    1.2633753
C    -2.8898548   -1.2624035    1.1994307
H    -2.9683706   -2.2124563    1.7152676
C    -2.5773185    2.5963696   -0.4192930
H    -3.4870728    3.1412239   -0.6474055
C    -1.3741895    3.2147896   -0.4364030
H    -1.2997315    4.2742019   -0.6578144
C    -0.1719488    2.4994090   -0.1734588
C    -0.2043917    1.1018437    0.0192689
C     1.0513491    3.2042560   -0.0676222
H     1.0427344    4.2819499   -0.1896997
C     2.1942091    2.5487446    0.2579577
H     3.1168527    3.0912848    0.4334727
C     2.2216473    1.1336562    0.2934990
C     1.0486931    0.3945528    0.0302412
C     3.4483363    0.4614633    0.5573939
H     4.3095794    1.0606054    0.8334846
C     3.5427346   -0.8855926    0.4749463
H     4.4731467   -1.3939704    0.7038822
C     2.4490052   -1.6474447   -0.0196319
C     1.2150704   -1.0057258   -0.3013573
C     0.2531113   -1.7434440   -1.0216591
H    -0.6541356   -1.2535051   -1.3462847
C     0.4494193   -3.0628597   -1.3413779
H    -0.3083162   -3.5944309   -1.9054060
C     1.6251726   -3.7207967   -0.9552541
H     1.7670048   -4.7687404   -1.1927019
C     2.6109872   -3.0144177   -0.3183050
H     3.5525612   -3.4902813   -0.0646367
Bq        -3.9835075469     0.1529019853     0.4890138573
Bq        -3.9852775248     0.3703155704     0.9392673417
Bq        -3.9854605881     0.5038496800     0.9858356576
Bq        -3.9847525969     0.4168842460     0.8057342638
Bq        -3.9858145837     0.5473323970     1.0758863544
Bq        -3.9843986014     0.3734015290     0.7156835669
Bq        -3.9861685792     0.5908151140     1.1659370513
Bq        -3.9840446058     0.3299188120     0.6256328700
Bq        -3.9865225748     0.6342978311     1.2559877482
Bq        -3.9836906102     0.2864360950     0.5355821731
Bq        -3.9868765704     0.6777805481     1.3460384451
Bq        -3.9833366146     0.2429533780     0.4455314763
Bq        -3.9851065925     0.4603669630     0.8957849607
Bq        -3.9852896558     0.5939010727     0.9423532765
Bq        -3.9845816647     0.5069356387     0.7622518828
Bq        -3.9856436514     0.6373837897     1.0324039734
Bq        -3.9842276691     0.4634529217     0.6722011859
Bq        -3.9859976470     0.6808665067     1.1224546703
Bq        -3.9838736735     0.4199702047     0.5821504890
Bq        -3.9863516425     0.7243492237     1.2125053672
Bq        -3.9835196779     0.3764874877     0.4920997921
Bq        -3.9867056381     0.7678319407     1.3025560641
Bq        -3.9831656824     0.3330047707     0.4020490952
Bq        -3.9849356602     0.5504183557     0.8523025796
Bq        -3.9851187235     0.6839524654     0.8988708955
Bq        -3.9844107324     0.5969870314     0.7187695017
Bq        -3.9854727191     0.7274351824     0.9889215924
Bq        -3.9840567368     0.5535043144     0.6287188048
Bq        -3.9858267147     0.7709178994     1.0789722893
Bq        -3.9837027412     0.5100215974     0.5386681080
Bq        -3.9861807103     0.8144006164     1.1690229861
Bq        -3.9833487457     0.4665388804     0.4486174111
Bq        -3.9865347058     0.8578833334     1.2590736830
Bq        -3.9829947501     0.4230561634     0.3585667142
Bq        -3.9847647280     0.6404697484     0.8088201986
Bq        -3.9849477913     0.7740038581     0.8553885145
Bq        -3.9842398001     0.6870384240     0.6752871207
Bq        -3.9853017868     0.8174865751     0.9454392113
Bq        -3.9838858045     0.6435557070     0.5852364238
Bq        -3.9856557824     0.8609692921     1.0354899082
Bq        -3.9835318090     0.6000729900     0.4951857269
Bq        -3.9860097780     0.9044520091     1.1255406051
Bq        -3.9831778134     0.5565902730     0.4051350300
Bq        -3.9863637736     0.9479347261     1.2155913020
Bq        -3.9828238178     0.5131075560     0.3150843332
Bq        -3.9845937957     0.7305211410     0.7653378176
Bq        -3.9847768590     0.8640552507     0.8119061334
Bq        -3.9840688678     0.7770898167     0.6318047397
Bq        -3.9851308546     0.9075379677     0.9019568303
Bq        -3.9837148723     0.7336070997     0.5417540428
Bq        -3.9854848501     0.9510206847     0.9920075272
Bq        -3.9833608767     0.6901243827     0.4517033459
Bq        -3.9858388457     0.9945034017     1.0820582241
Bq        -3.9830068811     0.6466416657     0.3616526490
Bq        -3.9861928413     1.0379861187     1.1721089210
Bq        -3.9826528855     0.6031589487     0.2716019521
Bq        -3.9844228634     0.8205725337     0.7218554365
Bq        -3.9846059267     0.9541066434     0.7684237524
Bq        -3.9838979356     0.8671412094     0.5883223586
Bq        -3.9849599223     0.9975893604     0.8584744493
Bq        -3.9835439400     0.8236584924     0.4982716617
Bq        -3.9853139179     1.0410720774     0.9485251462
Bq        -3.9831899444     0.7801757754     0.4082209649
Bq        -3.9856679134     1.0845547944     1.0385758430
Bq        -3.9828359488     0.7366930584     0.3181702680
Bq        -3.9860219090     1.1280375114     1.1286265399
Bq        -3.9824819533     0.6932103414     0.2281195711
Bq        -3.9842519311     0.9106239264     0.6783730555
Bq        -3.9844349944     1.0441580361     0.7249413714
Bq        -3.9837270033     0.9571926021     0.5448399776
Bq        -3.9847889900     1.0876407531     0.8149920682
Bq        -3.9833730077     0.9137098850     0.4547892807
Bq        -3.9851429856     1.1311234701     0.9050427651
Bq        -3.9830190121     0.8702271680     0.3647385838
Bq        -3.9854969812     1.1746061871     0.9950934620
Bq        -3.9826650166     0.8267444510     0.2746878870
Bq        -3.9858509767     1.2180889041     1.0851441589
Bq        -3.9823110210     0.7832617340     0.1846371901
Bq        -3.9840809989     1.0006753191     0.6348906745
Bq        -3.9842640622     1.1342094287     0.6814589903
Bq        -3.9835560710     1.0472439947     0.5013575966
Bq        -3.9846180577     1.1776921457     0.7715096872
Bq        -3.9832020754     1.0037612777     0.4113068997
Bq        -3.9849720533     1.2211748627     0.8615603841
Bq        -3.9828480799     0.9602785607     0.3212562028
Bq        -3.9853260489     1.2646575797     0.9516110810
Bq        -3.9824940843     0.9167958437     0.2312055059
Bq        -3.9856800445     1.3081402968     1.0416617779
Bq        -3.9821400887     0.8733131267     0.1411548090
Bq        -3.9839100666     1.0907267117     0.5914082934
Bq        -3.9840931299     1.2242608214     0.6379766093
Bq        -3.9833851387     1.1372953874     0.4578752155
Bq        -3.9844471255     1.2677435384     0.7280273062
Bq        -3.9830311432     1.0938126704     0.3678245187
Bq        -3.9848011210     1.3112262554     0.8180780031
Bq        -3.9826771476     1.0503299534     0.2777738218
Bq        -3.9851551166     1.3547089724     0.9081286999
Bq        -3.9823231520     1.0068472364     0.1877231249
Bq        -3.9855091122     1.3981916894     0.9981793968
Bq        -3.9819691564     0.9633645194     0.0976724280
Bq        -3.9837391343     1.1807781044     0.5479259124
Bq        -3.9839221976     1.3143122141     0.5944942283
Bq        -3.9832142065     1.2273467801     0.4143928345
Bq        -3.9842761932     1.3577949311     0.6845449251
Bq        -3.9828602109     1.1838640631     0.3243421376
Bq        -3.9846301888     1.4012776481     0.7745956220
Bq        -3.9825062153     1.1403813461     0.2342914407
Bq        -3.9849841843     1.4447603651     0.8646463189
Bq        -3.9821522197     1.0968986291     0.1442407439
Bq        -3.9853381799     1.4882430821     0.9546970158
Bq        -3.9817982242     1.0534159120     0.0541900470
Bq        -3.9835682020     1.2708294971     0.5044435314
Bq        -3.9837512653     1.4043636067     0.5510118472
Bq        -3.9830432742     1.3173981727     0.3709104535
Bq        -3.9841052609     1.4478463237     0.6410625441
Bq        -3.9826892786     1.2739154557     0.2808597566
Bq        -3.9844592565     1.4913290408     0.7311132410
Bq        -3.9823352830     1.2304327387     0.1908090597
Bq        -3.9848132521     1.5348117578     0.8211639379
Bq        -3.9819812875     1.1869500217     0.1007583628
Bq        -3.9851672476     1.5782944748     0.9112146348
Bq        -3.9816272919     1.1434673047     0.0107076659
Bq        -3.9833972698     1.3608808897     0.4609611504
Bq        -3.9835803331     1.4944149994     0.5075294662
Bq        -3.9828723419     1.4074495654     0.3274280724
Bq        -3.9839343286     1.5378977164     0.5975801631
Bq        -3.9825183463     1.3639668484     0.2373773756
Bq        -3.9842883242     1.5813804334     0.6876308600
Bq        -3.9821643508     1.3204841314     0.1473266787
Bq        -3.9846423198     1.6248631504     0.7776815568
Bq        -3.9818103552     1.2770014144     0.0572759818
Bq        -3.9849963154     1.6683458674     0.8677322537
Bq        -3.9814563596     1.2335186974    -0.0327747151
Bq        -3.9832263375     1.4509322824     0.4174787693
Bq        -3.9834094008     1.5844663921     0.4640470852
Bq        -3.9827014096     1.4975009581     0.2839456914
Bq        -3.9837633964     1.6279491091     0.5540977821
Bq        -3.9823474141     1.4540182411     0.1938949945
Bq        -3.9841173919     1.6714318261     0.6441484789
Bq        -3.9819934185     1.4105355241     0.1038442976
Bq        -3.9844713875     1.7149145431     0.7341991758
Bq        -3.9816394229     1.3670528071     0.0137936008
Bq        -3.9848253831     1.7583972601     0.8242498727
Bq        -3.9812854273     1.3235700901    -0.0762570961
Bq        -3.9830554052     1.5409836751     0.3739963883
Bq        -3.9832384685     1.6745177848     0.4205647041
Bq        -3.9825304774     1.5875523507     0.2404633104
Bq        -3.9835924641     1.7180005018     0.5106154010
Bq        -3.9821764818     1.5440696337     0.1504126135
Bq        -3.9839464597     1.7614832188     0.6006660979
Bq        -3.9818224862     1.5005869167     0.0603619166
Bq        -3.9843004552     1.8049659358     0.6907167948
Bq        -3.9814684906     1.4571041997    -0.0296887803
Bq        -3.9846544508     1.8484486528     0.7807674917
Bq        -3.9811144951     1.4136214827    -0.1197394772
Bq        -3.9828844729     1.6310350678     0.3305140073
Bq        -3.9830675362     1.7645691774     0.3770823231
Bq        -3.9823595451     1.6776037434     0.1969809293
Bq        -3.9834215318     1.8080518944     0.4671330200
Bq        -3.9820055495     1.6341210264     0.1069302325
Bq        -3.9837755274     1.8515346114     0.5571837169
Bq        -3.9816515539     1.5906383094     0.0168795356
Bq        -3.9841295230     1.8950173284     0.6472344138
Bq        -3.9812975584     1.5471555924    -0.0731711613
Bq        -3.9844835185     1.9385000454     0.7372851106
Bq        -3.9809435628     1.5036728754    -0.1632218582
Bq        -3.9827135407     1.7210864604     0.2870316262
Bq        -3.9828966040     1.8546205701     0.3335999421
Bq        -3.9821886128     1.7676551361     0.1534985483
Bq        -3.9832505995     1.8981032871     0.4236506390
Bq        -3.9818346172     1.7241724191     0.0634478514
Bq        -3.9836045951     1.9415860041     0.5137013358
Bq        -3.9814806217     1.6806897021    -0.0266028455
Bq        -3.9839585907     1.9850687211     0.6037520327
Bq        -3.9811266261     1.6372069851    -0.1166535423
Bq        -3.9843125863     2.0285514381     0.6938027296
Bq        -3.9807726305     1.5937242681    -0.2067042392
Bq        -3.9825426084     1.8111378531     0.2435492452
Bq        -3.9827256717     1.9446719628     0.2901175610
Bq        -3.9820176805     1.8577065288     0.1100161673
Bq        -3.9830796673     1.9881546798     0.3801682579
Bq        -3.9816636850     1.8142238118     0.0199654704
Bq        -3.9834336628     2.0316373968     0.4702189548
Bq        -3.9813096894     1.7707410947    -0.0700852265
Bq        -3.9837876584     2.0751201138     0.5602696517
Bq        -3.9809556938     1.7272583777    -0.1601359234
Bq        -3.9841416540     2.1186028308     0.6503203486
Bq        -3.9806016982     1.6837756607    -0.2501866203
Bq        -3.9823716761     1.9011892458     0.2000668642
Bq        -3.9825547394     2.0347233554     0.2466351800
Bq        -3.9818467483     1.9477579214     0.0665337862
Bq        -3.9829087350     2.0782060724     0.3366858769
Bq        -3.9814927527     1.9042752044    -0.0235169106
Bq        -3.9832627306     2.1216887894     0.4267365738
Bq        -3.9811387571     1.8607924874    -0.1135676075
Bq        -3.9836167261     2.1651715065     0.5167872707
Bq        -3.9807847615     1.8173097704    -0.2036183044
Bq        -3.9839707217     2.2086542235     0.6068379675
Bq        -3.9804307660     1.7738270534    -0.2936690013
Bq        -3.9822007438     1.9912406384     0.1565844831

1
2
3
4
5
6
7
8
9
10
11
12
13
14
15
16
17
18
19
20
21
22
23
24
25
26
27
28
29
30
31
32
33
34
35
36
37
38
39
40
41
42
43
44
45
46
47
48
49
50
51
52
53
54
55
56
57
58
59
60
61
62
63
64
65
66
67
68
69
70
71
72
73
74
75
76
77
78
79
80
81
82
83
84
85
86
87
88
89
90
91
92
93
94
95
96
97
98
99
100
101
102
103
104
105
106
107
108
109
110
111
112
113
114
115
116
117
118
119
120
121
122
123
124
125
126
127
128
129
130
131
132
133
134
135
136
137
138
139
140
141
142
143
144
145
146
147
148
149
150
151
152
153
154
155
156
157
158
159
160
161
162
163
164
165
166
167
168
169
170
171
172
173
174
175
176
177
178
179
180
181
182
183
184
185
186
187
188
189
190
191
192
193
194
195
196
197
198
199
200
201
202
203
204
205
206
207
208
209
210
211
212
213
214
215
216
217
218
219
220
221
222
223
224
225
226
227
228
229
230
231
232
233
234
235
236

