%nproc=8
%mem=1000MB
# rb3lyp/6-311+g** NMR geom=connectivity

Title

0 1
C    -4.0500558   -0.5771862    0.8136712
H    -5.0263804   -1.0082727    1.0024760
C    -3.9381552    0.6617804    0.2400876
H    -4.8252424    1.2338890   -0.0111295
C    -2.6768410    1.2433246    0.0057578
C    -1.4974121    0.5051527    0.2848253
C    -1.6508332   -0.7338728    0.9404026
H    -0.7713646   -1.2730967    1.2633753
C    -2.8898548   -1.2624035    1.1994307
H    -2.9683706   -2.2124563    1.7152676
C    -2.5773185    2.5963696   -0.4192930
H    -3.4870728    3.1412239   -0.6474055
C    -1.3741895    3.2147896   -0.4364030
H    -1.2997315    4.2742019   -0.6578144
C    -0.1719488    2.4994090   -0.1734588
C    -0.2043917    1.1018437    0.0192689
C     1.0513491    3.2042560   -0.0676222
H     1.0427344    4.2819499   -0.1896997
C     2.1942091    2.5487446    0.2579577
H     3.1168527    3.0912848    0.4334727
C     2.2216473    1.1336562    0.2934990
C     1.0486931    0.3945528    0.0302412
C     3.4483363    0.4614633    0.5573939
H     4.3095794    1.0606054    0.8334846
C     3.5427346   -0.8855926    0.4749463
H     4.4731467   -1.3939704    0.7038822
C     2.4490052   -1.6474447   -0.0196319
C     1.2150704   -1.0057258   -0.3013573
C     0.2531113   -1.7434440   -1.0216591
H    -0.6541356   -1.2535051   -1.3462847
C     0.4494193   -3.0628597   -1.3413779
H    -0.3083162   -3.5944309   -1.9054060
C     1.6251726   -3.7207967   -0.9552541
H     1.7670048   -4.7687404   -1.1927019
C     2.6109872   -3.0144177   -0.3183050
H     3.5525612   -3.4902813   -0.0646367
Bq         1.3950513389     0.8542594436     0.9716612256
Bq         1.4819070572     0.8247785331     0.3787135381
Bq         1.3805753859     0.8591729286     1.0704858402
Bq         1.4963830102     0.8198650480     0.2798889235
Bq         1.3660994328     0.8640864137     1.1693104547
Bq         1.5108589633     0.8149515629     0.1810643089
Bq         1.4384791981     0.8395189883     0.6751873818
Bq         1.4247153790     0.9443116888     0.7691503916
Bq         1.4536672850     0.9344847186     0.5715011625
Bq         1.4102394259     0.9492251739     0.8679750062
Bq         1.4681432381     0.9295712335     0.4726765479
Bq         1.3957634729     0.9541386589     0.9667996208
Bq         1.4826191911     0.9246577484     0.3738519333
Bq         1.3812875198     0.9590521440     1.0656242354
Bq         1.4970951442     0.9197442634     0.2750273187
Bq         1.3668115668     0.9639656291     1.1644488500
Bq         1.5115710972     0.9148307783     0.1762027041
Bq         1.4391913320     0.9393982037     0.6703257771
Bq         1.4254275129     1.0441909041     0.7642887869
Bq         1.4543794190     1.0343639340     0.5666395577
Bq         1.4109515598     1.0491043892     0.8631134015
Bq         1.4688553720     1.0294504489     0.4678149431
Bq         1.3964756068     1.0540178743     0.9619380160
Bq         1.4833313251     1.0245369638     0.3689903285
Bq         1.3819996538     1.0589313594     1.0607626306
Bq         1.4978072781     1.0196234787     0.2701657140
Bq         1.3675237007     1.0638448445     1.1595872452
Bq         1.5122832312     1.0147099936     0.1713410994
Bq         1.4399034659     1.0392774191     0.6654641723
Bq         1.4261396468     1.1440701195     0.7594271821
Bq         1.4550915529     1.1342431494     0.5617779529
Bq         1.4116636938     1.1489836046     0.8582517967
Bq         1.4695675060     1.1293296643     0.4629533384
Bq         1.3971877407     1.1538970897     0.9570764113
Bq         1.4840434590     1.1244161792     0.3641287238
Bq         1.3827117877     1.1588105748     1.0559010259
Bq         1.4985194121     1.1195026941     0.2653041092
Bq         1.3682358347     1.1637240599     1.1547256404
Bq         1.5129953651     1.1145892090     0.1664794946
Bq         1.4406155999     1.1391566344     0.6606025675
Bq         1.4268517808     1.2439493349     0.7545655773
Bq         1.4558036869     1.2341223647     0.5569163482
Bq         1.4123758277     1.2488628200     0.8533901919
Bq         1.4702796399     1.2292088797     0.4580917336
Bq         1.3978998747     1.2537763051     0.9522148065
Bq         1.4847555930     1.2242953946     0.3592671190
Bq         1.3834239216     1.2586897901     1.0510394211
Bq         1.4992315460     1.2193819095     0.2604425044
Bq         1.3689479686     1.2636032752     1.1498640357
Bq         1.5137074990     1.2144684244     0.1616178898
Bq         1.4413277338     1.2390358498     0.6557409628
Bq         1.4275639147     1.3438285503     0.7497039726
Bq         1.4565158208     1.3340015801     0.5520547434
Bq         1.4130879617     1.3487420354     0.8485285872
Bq         1.4709917738     1.3290880950     0.4532301288
Bq         1.3986120086     1.3536555204     0.9473532017
Bq         1.4854677269     1.3241746099     0.3544055142
Bq         1.3841360556     1.3585690055     1.0461778163
Bq         1.4999436799     1.3192611249     0.2555808997
Bq         1.3696601025     1.3634824906     1.1450024309
Bq         1.5144196330     1.3143476398     0.1567562851
Bq         1.4420398678     1.3389150652     0.6508793580
Bq         1.4282760487     1.4437077657     0.7448423678
Bq         1.4572279547     1.4338807955     0.5471931386
Bq         1.4138000956     1.4486212507     0.8436669824
Bq         1.4717039078     1.4289673104     0.4483685241
Bq         1.3993241426     1.4535347358     0.9424915970
Bq         1.4861798608     1.4240538253     0.3495439095
Bq         1.3848481895     1.4584482209     1.0413162116
Bq         1.5006558139     1.4191403402     0.2507192949
Bq         1.3703722365     1.4633617060     1.1401408261
Bq         1.5151317669     1.4142268552     0.1518946803
Bq         1.4427520017     1.4387942806     0.6460177532
Bq         1.4289881826     1.5435869810     0.7399807630
Bq         1.4579400887     1.5337600109     0.5423315339
Bq         1.4145122296     1.5485004661     0.8388053776
Bq         1.4724160417     1.5288465258     0.4435069193
Bq         1.4000362765     1.5534139512     0.9376299922
Bq         1.4868919948     1.5239330407     0.3446823047
Bq         1.3855603235     1.5583274363     1.0364546068
Bq         1.5013679478     1.5190195556     0.2458576901
Bq         1.3710843704     1.5632409214     1.1352792214
Bq         1.5158439009     1.5141060705     0.1470330755
Bq         1.4434641356     1.5386734959     0.6411561485
Bq         1.4297003165     1.6434661964     0.7351191583
Bq         1.4586522226     1.6336392262     0.5374699291
Bq         1.4152243635     1.6483796815     0.8339437729
Bq         1.4731281757     1.6287257412     0.4386453145
Bq         1.4007484105     1.6532931666     0.9327683874
Bq         1.4876041287     1.6238122561     0.3398206999
Bq         1.3862724574     1.6582066517     1.0315930020
Bq         1.5020800818     1.6188987710     0.2409960854
Bq         1.3717965044     1.6631201367     1.1304176166
Bq         1.5165560348     1.6139852859     0.1421714708
Bq         1.4441762696     1.6385527113     0.6362945437
Bq         1.4304124505     1.7433454118     0.7302575535
Bq         1.4593643566     1.7335184416     0.5326083243
Bq         1.4159364974     1.7482588969     0.8290821681
Bq         1.4738403096     1.7286049565     0.4337837098
Bq         1.4014605444     1.7531723819     0.9279067827
Bq         1.4883162627     1.7236914715     0.3349590952
Bq         1.3869845914     1.7580858670     1.0267313973
Bq         1.5027922157     1.7187779864     0.2361344806
Bq         1.3725086383     1.7629993521     1.1255560118
Bq         1.5172681687     1.7138645013     0.1373098660
Bq         1.4448884035     1.7384319267     0.6314329389
Bq         1.4311245844     1.8432246272     0.7253959487
Bq         1.4600764905     1.8333976570     0.5277467196
Bq         1.4166486314     1.8481381122     0.8242205633
Bq         1.4745524436     1.8284841719     0.4289221050
Bq         1.4021726783     1.8530515973     0.9230451779
Bq         1.4890283966     1.8235706868     0.3300974904
Bq         1.3876967253     1.8579650824     1.0218697925
Bq         1.5035043496     1.8186572017     0.2312728758
Bq         1.3732207722     1.8628785675     1.1206944071
Bq         1.5179803027     1.8137437167     0.1324482612
Bq         1.4456005375     1.8383111421     0.6265713342
Bq         1.4318367184     1.9431038425     0.7205343440
Bq         1.4607886245     1.9332768724     0.5228851148
Bq         1.4173607653     1.9480173276     0.8193589586
Bq         1.4752645775     1.9283633873     0.4240605002
Bq         1.4028848123     1.9529308127     0.9181835731
Bq         1.4897405305     1.9234499022     0.3252358856
Bq         1.3884088592     1.9578442978     1.0170081877
Bq         1.5042164836     1.9185364171     0.2264112711
Bq         1.3739329062     1.9627577829     1.1158328023
Bq         1.5186924366     1.9136229320     0.1275866565
Bq         1.4463126714     1.9381903575     0.6217097294
Bq         1.4325488523     2.0429830579     0.7156727392
Bq         1.4615007584     2.0331560878     0.5180235100
Bq         1.4180728993     2.0478965430     0.8144973538
Bq         1.4759767114     2.0282426027     0.4191988955
Bq         1.4035969462     2.0528100281     0.9133219684
Bq         1.4904526645     2.0233291176     0.3203742809
Bq         1.3891209932     2.0577235132     1.0121465830
Bq         1.5049286175     2.0184156325     0.2215496663
Bq         1.3746450401     2.0626369982     1.1109711976
Bq         1.5194045706     2.0135021474     0.1227250517
Bq         1.4470248054     2.0380695728     0.6168481246
Bq         1.4332609863     2.1428622733     0.7108111344
Bq         1.4622128923     2.1330353031     0.5131619053
Bq         1.4187850332     2.1477757584     0.8096357490
Bq         1.4766888454     2.1281218180     0.4143372907
Bq         1.4043090802     2.1526892435     0.9084603636
Bq         1.4911647984     2.1232083330     0.3155126761
Bq         1.3898331271     2.1576027285     1.0072849782
Bq         1.5056407515     2.1182948479     0.2166880615
Bq         1.3753571741     2.1625162136     1.1061095928
Bq         1.5201167045     2.1133813628     0.1178634469
Bq         1.4477369393     2.1379487882     0.6119865199
Bq         1.4339731202     2.2427414887     0.7059495297
Bq         1.4629250263     2.2329145185     0.5083003005
Bq         1.4194971671     2.2476549738     0.8047741443
Bq         1.4774009793     2.2280010334     0.4094756859
Bq         1.4050212141     2.2525684588     0.9035987588
Bq         1.4918769324     2.2230875483     0.3106510713
Bq         1.3905452611     2.2574819439     1.0024233734
Bq         1.5063528854     2.2181740633     0.2118264568
Bq         1.3760693080     2.2623954290     1.1012479880
Bq         1.5208288385     2.2132605782     0.1130018422
Bq         1.4484490732     2.2378280036     0.6071249151
Bq         1.4346852541     2.3426207040     0.7010879249
Bq         1.4636371602     2.3327937339     0.5034386957
Bq         1.4202093011     2.3475341891     0.7999125395
Bq         1.4781131133     2.3278802488     0.4046140812
Bq         1.4057333480     2.3524476742     0.8987371541
Bq         1.4925890663     2.3229667637     0.3057894666
Bq         1.3912573950     2.3573611593     0.9975617687
Bq         1.5070650194     2.3180532786     0.2069648520
Bq         1.3767814420     2.3622746444     1.0963863833
Bq         1.5215409724     2.3131397936     0.1081402374
Bq         1.4491612072     2.3377072190     0.6022633103
Bq         1.4353973881     2.4424999194     0.6962263201
Bq         1.4643492942     2.4326729493     0.4985770910
Bq         1.4209214350     2.4474134045     0.7950509347
Bq         1.4788252472     2.4277594642     0.3997524764
Bq         1.4064454820     2.4523268896     0.8938755493
Bq         1.4933012003     2.4228459791     0.3009278618
Bq         1.3919695289     2.4572403747     0.9927001639
Bq         1.5077771533     2.4179324940     0.2021032472
Bq         1.3774935759     2.4621538598     1.0915247785
Bq         1.5222531063     2.4130190089     0.1032786326
Bq         1.4498733411     2.4375864343     0.5974017056
Bq         1.4361095220     2.5423791348     0.6913647154
Bq         1.4650614281     2.5325521646     0.4937154862
Bq         1.4216335690     2.5472926199     0.7901893300
Bq         1.4795373812     2.5276386796     0.3948908716
Bq         1.4071576159     2.5522061050     0.8890139445
Bq         1.4940133342     2.5227251945     0.2960662570
Bq         1.3926816629     2.5571195900     0.9878385591
Bq         1.5084892872     2.5178117094     0.1972416425
Bq         1.3782057098     2.5620330751     1.0866631737
Bq         1.5229652403     2.5128982243     0.0984170279
Bq         1.4505854751     2.5374656497     0.5925401008
Bq         1.4368216560     2.6422583502     0.6865031106
Bq         1.4657735620     2.6324313800     0.4888538814
Bq         1.4223457029     2.6471718353     0.7853277252
Bq         1.4802495151     2.6275178949     0.3900292669
Bq         1.4078697499     2.6520853203     0.8841523398
Bq         1.4947254681     2.6226044098     0.2912046523

1
2
3
4
5
6
7
8
9
10
11
12
13
14
15
16
17
18
19
20
21
22
23
24
25
26
27
28
29
30
31
32
33
34
35
36
37
38
39
40
41
42
43
44
45
46
47
48
49
50
51
52
53
54
55
56
57
58
59
60
61
62
63
64
65
66
67
68
69
70
71
72
73
74
75
76
77
78
79
80
81
82
83
84
85
86
87
88
89
90
91
92
93
94
95
96
97
98
99
100
101
102
103
104
105
106
107
108
109
110
111
112
113
114
115
116
117
118
119
120
121
122
123
124
125
126
127
128
129
130
131
132
133
134
135
136
137
138
139
140
141
142
143
144
145
146
147
148
149
150
151
152
153
154
155
156
157
158
159
160
161
162
163
164
165
166
167
168
169
170
171
172
173
174
175
176
177
178
179
180
181
182
183
184
185
186
187
188
189
190
191
192
193
194
195
196
197
198
199
200
201
202
203
204
205
206
207
208
209
210
211
212
213
214
215
216
217
218
219
220
221
222
223
224
225
226
227
228
229
230
231
232
233
234
235
236

