%nproc=8
%mem=1000MB
# rb3lyp/6-311+g** NMR geom=connectivity

Title

0 1
C    -4.0500558   -0.5771862    0.8136712
H    -5.0263804   -1.0082727    1.0024760
C    -3.9381552    0.6617804    0.2400876
H    -4.8252424    1.2338890   -0.0111295
C    -2.6768410    1.2433246    0.0057578
C    -1.4974121    0.5051527    0.2848253
C    -1.6508332   -0.7338728    0.9404026
H    -0.7713646   -1.2730967    1.2633753
C    -2.8898548   -1.2624035    1.1994307
H    -2.9683706   -2.2124563    1.7152676
C    -2.5773185    2.5963696   -0.4192930
H    -3.4870728    3.1412239   -0.6474055
C    -1.3741895    3.2147896   -0.4364030
H    -1.2997315    4.2742019   -0.6578144
C    -0.1719488    2.4994090   -0.1734588
C    -0.2043917    1.1018437    0.0192689
C     1.0513491    3.2042560   -0.0676222
H     1.0427344    4.2819499   -0.1896997
C     2.1942091    2.5487446    0.2579577
H     3.1168527    3.0912848    0.4334727
C     2.2216473    1.1336562    0.2934990
C     1.0486931    0.3945528    0.0302412
C     3.4483363    0.4614633    0.5573939
H     4.3095794    1.0606054    0.8334846
C     3.5427346   -0.8855926    0.4749463
H     4.4731467   -1.3939704    0.7038822
C     2.4490052   -1.6474447   -0.0196319
C     1.2150704   -1.0057258   -0.3013573
C     0.2531113   -1.7434440   -1.0216591
H    -0.6541356   -1.2535051   -1.3462847
C     0.4494193   -3.0628597   -1.3413779
H    -0.3083162   -3.5944309   -1.9054060
C     1.6251726   -3.7207967   -0.9552541
H     1.7670048   -4.7687404   -1.1927019
C     2.6109872   -3.0144177   -0.3183050
H     3.5525612   -3.4902813   -0.0646367
Bq         0.9707936187     4.0922792097     0.2350132595
Bq         0.9938455067     3.9449833055    -0.3461687491
Bq         0.9669516374     4.1168285271     0.3318769276
Bq         0.9976874880     3.9204339881    -0.4430324171
Bq         0.9631096561     4.1413778445     0.4287405957
Bq         1.0015294694     3.8958846707    -0.5398960852
Bq         0.9823195627     4.0186312576    -0.0555777448
Bq         0.9794505356     4.1401204069     0.0167558939
Bq         0.9871344983     4.0910217722    -0.1769714423
Bq         0.9756085543     4.1646697243     0.1136195620
Bq         0.9909764796     4.0664724548    -0.2738351104
Bq         0.9717665730     4.1892190417     0.2104832301
Bq         0.9948184609     4.0419231374    -0.3706987785
Bq         0.9679245916     4.2137683590     0.3073468982
Bq         0.9986604423     4.0173738200    -0.4675624466
Bq         0.9640826103     4.2383176764     0.4042105662
Bq         1.0025024236     3.9928245027    -0.5644261147
Bq         0.9832925169     4.1155710895    -0.0801077742
Bq         0.9804234898     4.2370602389    -0.0077741355
Bq         0.9881074525     4.1879616041    -0.2015014717
Bq         0.9765815085     4.2616095562     0.0890895325
Bq         0.9919494338     4.1634122867    -0.2983651398
Bq         0.9727395272     4.2861588736     0.1859532006
Bq         0.9957914152     4.1388629694    -0.3952288079
Bq         0.9688975459     4.3107081910     0.2828168687
Bq         0.9996333965     4.1143136520    -0.4920924760
Bq         0.9650555645     4.3352575084     0.3796805368
Bq         1.0034753778     4.0897643346    -0.5889561441
Bq         0.9842654712     4.2125109215    -0.1046378036
Bq         0.9813964441     4.3340000708    -0.0323041650
Bq         0.9890804067     4.2849014360    -0.2260315012
Bq         0.9775544627     4.3585493882     0.0645595031
Bq         0.9929223881     4.2603521187    -0.3228951692
Bq         0.9737124814     4.3830987055     0.1614231712
Bq         0.9967643694     4.2358028013    -0.4197588373
Bq         0.9698705001     4.4076480229     0.2582868393
Bq         1.0006063507     4.2112534839    -0.5166225054
Bq         0.9660285188     4.4321973403     0.3551505074
Bq         1.0044483320     4.1867041665    -0.6134861735
Bq         0.9852384254     4.3094507534    -0.1291678331
Bq         0.9823693983     4.4309399027    -0.0568341944
Bq         0.9900533610     4.3818412680    -0.2505615306
Bq         0.9785274170     4.4554892201     0.0400294737
Bq         0.9938953423     4.3572919506    -0.3474251987
Bq         0.9746854356     4.4800385375     0.1368931418
Bq         0.9977373236     4.3327426332    -0.4442888668
Bq         0.9708434543     4.5045878549     0.2337568099
Bq         1.0015793049     4.3081933159    -0.5411525349
Bq         0.9670014730     4.5291371722     0.3306204780
Bq         1.0054212863     4.2836439985    -0.6380162029
Bq         0.9862113796     4.4063905854    -0.1536978625
Bq         1.0336431189    -0.4160516942     1.1736305408
Bq         1.0413270816    -0.4651503290     0.9799032046
Bq         1.0298011376    -0.3915023768     1.2704942089
Bq         1.0451690629    -0.4896996464     0.8830395365
Bq         1.0259591562    -0.3669530595     1.3673578770
Bq         1.0490110442    -0.5142489637     0.7861758685
Bq         1.0221171749    -0.3424037421     1.4642215451
Bq         1.0528530256    -0.5387982811     0.6893122004
Bq         1.0182751936    -0.3178544247     1.5610852132
Bq         1.0566950069    -0.5633475985     0.5924485323
Bq         1.0374851002    -0.4406010116     1.0767668727
Bq         1.0346160731    -0.3191118623     1.1491005114
Bq         1.0423000358    -0.3682104970     0.9553731752
Bq         1.0307740918    -0.2945625449     1.2459641795
Bq         1.0461420171    -0.3927598144     0.8585095071
Bq         1.0269321105    -0.2700132275     1.3428278476
Bq         1.0499839984    -0.4173091318     0.7616458390
Bq         1.0230901291    -0.2454639102     1.4396915157
Bq         1.0538259798    -0.4418584492     0.6647821709
Bq         1.0192481478    -0.2209145928     1.5365551838
Bq         1.0576679611    -0.4664077665     0.5679185029
Bq         1.0384580545    -0.3436611797     1.0522368433
Bq         1.0355890274    -0.2221720303     1.1245704820
Bq         1.0432729900    -0.2712706651     0.9308431458
Bq         1.0317470460    -0.1976227130     1.2214341501
Bq         1.0471149713    -0.2958199825     0.8339794777
Bq         1.0279050647    -0.1730733956     1.3182978181
Bq         1.0509569527    -0.3203692998     0.7371158096
Bq         1.0240630834    -0.1485240782     1.4151614862
Bq         1.0547989340    -0.3449186172     0.6402521415
Bq         1.0202211020    -0.1239747608     1.5120251543
Bq         1.0586409153    -0.3694679346     0.5433884734
Bq         1.0394310087    -0.2467213477     1.0277068139
Bq         1.0365619816    -0.1252321984     1.1000404525
Bq         1.0442459442    -0.1743308332     0.9063131164
Bq         1.0327200002    -0.1006828810     1.1969041206
Bq         1.0480879256    -0.1988801505     0.8094494483
Bq         1.0288780189    -0.0761335637     1.2937677887
Bq         1.0519299069    -0.2234294679     0.7125857802
Bq         1.0250360376    -0.0515842463     1.3906314568
Bq         1.0557718882    -0.2479787853     0.6157221121
Bq         1.0211940563    -0.0270349289     1.4874951249
Bq         1.0596138696    -0.2725281027     0.5188584440
Bq         1.0404039629    -0.1497815158     1.0031767844
Bq         1.0375349358    -0.0282923665     1.0755104231
Bq         1.0452188985    -0.0773910012     0.8817830869
Bq         1.0336929545    -0.0037430491     1.1723740912
Bq         1.0490608798    -0.1019403186     0.7849194188
Bq         1.0298509731     0.0208062683     1.2692377593
Bq         1.0529028611    -0.1264896360     0.6880557508
Bq         1.0260089918     0.0453555857     1.3661014274
Bq         1.0567448424    -0.1510389533     0.5911920827
Bq         1.0221670105     0.0699049030     1.4629650955
Bq         1.0605868238    -0.1755882707     0.4943284146
Bq         1.0413769171    -0.0528416838     0.9786467550
Bq         1.0385078900     0.0686474655     1.0509803937
Bq         1.0461918527     0.0195488307     0.8572530575
Bq         1.0346659087     0.0931967828     1.1478440618
Bq         1.0500338340    -0.0050004867     0.7603893894
Bq         1.0308239274     0.1177461002     1.2447077299
Bq         1.0538758153    -0.0295498040     0.6635257213
Bq         1.0269819460     0.1422954176     1.3415713980
Bq         1.0577177967    -0.0540991214     0.5666620532
Bq         1.0231399647     0.1668447350     1.4384350660
Bq         1.0615597780    -0.0786484388     0.4697983851
Bq         1.0423498714     0.0440981481     0.9541167256
Bq         1.0394808443     0.1655872974     1.0264503643
Bq         1.0471648069     0.1164886627     0.8327230281
Bq         1.0356388629     0.1901366148     1.1233140323
Bq         1.0510067882     0.0919393453     0.7358593600
Bq         1.0317968816     0.2146859322     1.2201777004
Bq         1.0548487696     0.0673900279     0.6389956919
Bq         1.0279549003     0.2392352495     1.3170413685
Bq         1.0586907509     0.0428407105     0.5421320238
Bq         1.0241129189     0.2637845669     1.4139050366
Bq         1.0625327322     0.0182913932     0.4452683557
Bq         1.0433228256     0.1410379800     0.9295866962
Bq         1.0404537985     0.2625271294     1.0019203348
Bq         1.0481377611     0.2134284946     0.8081929987
Bq         1.0366118171     0.2870764467     1.0987840029
Bq         1.0519797425     0.1888791772     0.7113293306
Bq         1.0327698358     0.3116257641     1.1956476710
Bq         1.0558217238     0.1643298598     0.6144656625
Bq         1.0289278545     0.3361750815     1.2925113391
Bq         1.0596637051     0.1397805425     0.5176019944
Bq         1.0250858732     0.3607243989     1.3893750072
Bq         1.0635056865     0.1152312251     0.4207383263
Bq         1.0442957798     0.2379778120     0.9050566667
Bq         1.0414267527     0.3594669613     0.9773903054
Bq         1.0491107154     0.3103683265     0.7836629692
Bq         1.0375847714     0.3840162787     1.0742539735
Bq         1.0529526967     0.2858190092     0.6867993011
Bq         1.0337427900     0.4085655960     1.1711176416
Bq         1.0567946780     0.2612696918     0.5899356330
Bq         1.0299008087     0.4331149134     1.2679813097
Bq         1.0606366593     0.2367203744     0.4930719650
Bq         1.0260588274     0.4576642308     1.3648449778
Bq         1.0644786407     0.2121710570     0.3962082969
Bq         1.0452687340     0.3349176439     0.8805266373
Bq         1.0423997069     0.4564067932     0.9528602760
Bq         1.0500836696     0.4073081585     0.7591329398
Bq         1.0385577256     0.4809561106     1.0497239441
Bq         1.0539256509     0.3827588411     0.6622692717
Bq         1.0347157443     0.5055054280     1.1465876122
Bq         1.0577676322     0.3582095237     0.5654056036
Bq         1.0308737629     0.5300547454     1.2434512802
Bq         1.0616096136     0.3336602064     0.4685419355
Bq         1.0270317816     0.5546040627     1.3403149483
Bq         1.0654515949     0.3091108890     0.3716782674
Bq         1.0462416883     0.4318574759     0.8559966079
Bq         1.0433726611     0.5533466252     0.9283302465
Bq         1.0510566238     0.5042479904     0.7346029104
Bq         1.0395306798     0.5778959425     1.0251939146
Bq         1.0548986051     0.4796986730     0.6377392423
Bq         1.0356886985     0.6024452599     1.1220575827
Bq         1.0587405865     0.4551493557     0.5408755742
Bq         1.0318467172     0.6269945773     1.2189212508
Bq         1.0625825678     0.4306000383     0.4440119061
Bq         1.0280047358     0.6515438947     1.3157849189
Bq         1.0664245491     0.4060507209     0.3471482380
Bq         1.0472146425     0.5287973078     0.8314665785
Bq         1.0443456154     0.6502864571     0.9038002171
Bq         1.0520295780     0.6011878224     0.7100728809
Bq         1.0405036340     0.6748357745     1.0006638852
Bq         1.0558715594     0.5766385050     0.6132092129
Bq         1.0366616527     0.6993850919     1.0975275533
Bq         1.0597135407     0.5520891876     0.5163455448
Bq         1.0328196714     0.7239344092     1.1943912214
Bq         1.0635555220     0.5275398702     0.4194818767
Bq         1.0289776901     0.7484837266     1.2912548895
Bq         1.0673975033     0.5029905529     0.3226182086
Bq         1.0481875967     0.6257371397     0.8069365490
Bq         1.0453185696     0.7472262890     0.8792701877
Bq         1.0530025323     0.6981276543     0.6855428515
Bq         1.0414765883     0.7717756064     0.9761338558
Bq         1.0568445136     0.6735783369     0.5886791834
Bq         1.0376346069     0.7963249238     1.0729975239
Bq         1.0606864949     0.6490290195     0.4918155153
Bq         1.0337926256     0.8208742412     1.1698611920
Bq         1.0645284762     0.6244797022     0.3949518472
Bq         1.0299506443     0.8454235585     1.2667248601
Bq         1.0683704576     0.5999303848     0.2980881792
Bq         1.0491605509     0.7226769717     0.7824065196
Bq         1.0462915238     0.8441661210     0.8547401583
Bq         1.0539754865     0.7950674862     0.6610128221
Bq         1.0424495425     0.8687154384     0.9516038264
Bq         1.0578174678     0.7705181689     0.5641491540
Bq         1.0386075612     0.8932647557     1.0484674944
Bq         1.0616594491     0.7459688515     0.4672854859

1
2
3
4
5
6
7
8
9
10
11
12
13
14
15
16
17
18
19
20
21
22
23
24
25
26
27
28
29
30
31
32
33
34
35
36
37
38
39
40
41
42
43
44
45
46
47
48
49
50
51
52
53
54
55
56
57
58
59
60
61
62
63
64
65
66
67
68
69
70
71
72
73
74
75
76
77
78
79
80
81
82
83
84
85
86
87
88
89
90
91
92
93
94
95
96
97
98
99
100
101
102
103
104
105
106
107
108
109
110
111
112
113
114
115
116
117
118
119
120
121
122
123
124
125
126
127
128
129
130
131
132
133
134
135
136
137
138
139
140
141
142
143
144
145
146
147
148
149
150
151
152
153
154
155
156
157
158
159
160
161
162
163
164
165
166
167
168
169
170
171
172
173
174
175
176
177
178
179
180
181
182
183
184
185
186
187
188
189
190
191
192
193
194
195
196
197
198
199
200
201
202
203
204
205
206
207
208
209
210
211
212
213
214
215
216
217
218
219
220
221
222
223
224
225
226
227
228
229
230
231
232
233
234
235
236

