%nproc=8
%mem=1000MB
# rb3lyp/6-311+g** NMR geom=connectivity

Title

0 1
C    -4.0500558   -0.5771862    0.8136712
H    -5.0263804   -1.0082727    1.0024760
C    -3.9381552    0.6617804    0.2400876
H    -4.8252424    1.2338890   -0.0111295
C    -2.6768410    1.2433246    0.0057578
C    -1.4974121    0.5051527    0.2848253
C    -1.6508332   -0.7338728    0.9404026
H    -0.7713646   -1.2730967    1.2633753
C    -2.8898548   -1.2624035    1.1994307
H    -2.9683706   -2.2124563    1.7152676
C    -2.5773185    2.5963696   -0.4192930
H    -3.4870728    3.1412239   -0.6474055
C    -1.3741895    3.2147896   -0.4364030
H    -1.2997315    4.2742019   -0.6578144
C    -0.1719488    2.4994090   -0.1734588
C    -0.2043917    1.1018437    0.0192689
C     1.0513491    3.2042560   -0.0676222
H     1.0427344    4.2819499   -0.1896997
C     2.1942091    2.5487446    0.2579577
H     3.1168527    3.0912848    0.4334727
C     2.2216473    1.1336562    0.2934990
C     1.0486931    0.3945528    0.0302412
C     3.4483363    0.4614633    0.5573939
H     4.3095794    1.0606054    0.8334846
C     3.5427346   -0.8855926    0.4749463
H     4.4731467   -1.3939704    0.7038822
C     2.4490052   -1.6474447   -0.0196319
C     1.2150704   -1.0057258   -0.3013573
C     0.2531113   -1.7434440   -1.0216591
H    -0.6541356   -1.2535051   -1.3462847
C     0.4494193   -3.0628597   -1.3413779
H    -0.3083162   -3.5944309   -1.9054060
C     1.6251726   -3.7207967   -0.9552541
H     1.7670048   -4.7687404   -1.1927019
C     2.6109872   -3.0144177   -0.3183050
H     3.5525612   -3.4902813   -0.0646367
Bq        -5.1848778643    -0.3439236537     0.8352415931
Bq        -5.1880638244     0.0474207994     1.6456978650
Bq        -5.1845238687    -0.3874063707     0.7451908962
Bq        -5.1862938465    -0.1699927857     1.1954443806
Bq        -5.1864769098    -0.0364586760     1.2420126964
Bq        -5.1857689187    -0.1234241100     1.0619113027
Bq        -5.1868309054     0.0070240410     1.3320633933
Bq        -5.1854149231    -0.1669068270     0.9718606058
Bq        -5.1871849010     0.0505067580     1.4221140902
Bq        -5.1850609275    -0.2103895440     0.8818099089
Bq        -5.1875388966     0.0939894750     1.5121647871
Bq        -5.1847069320    -0.2538722610     0.7917592120
Bq        -5.1878928921     0.1374721920     1.6022154840
Bq        -5.1843529364    -0.2973549780     0.7017085152
Bq        -5.1861229143    -0.0799413930     1.1519619996
Bq        -5.1863059776     0.0535927167     1.1985303154
Bq        -5.1855979864    -0.0333727173     1.0184289216
Bq        -5.1866599731     0.0970754337     1.2885810123
Bq        -5.1852439908    -0.0768554343     0.9283782248
Bq        -5.1870139687     0.1405581507     1.3786317092
Bq        -5.1848899953    -0.1203381513     0.8383275279
Bq        -5.1873679643     0.1840408677     1.4686824061
Bq        -5.1845359997    -0.1638208683     0.7482768310
Bq        -5.1877219599     0.2275235847     1.5587331029
Bq        -5.1841820041    -0.2073035853     0.6582261341
Bq        -5.1859519820     0.0101099997     1.1084796185
Bq        -5.1861350453     0.1436441094     1.1550479344
Bq        -5.1854270541     0.0566786753     0.9749465406
Bq        -5.1864890409     0.1871268264     1.2450986313
Bq        -5.1850730586     0.0131959583     0.8848958437
Bq        -5.1868430364     0.2306095434     1.3351493281
Bq        -5.1847190630    -0.0302867587     0.7948451469
Bq        -5.1871970320     0.2740922604     1.4252000250
Bq        -5.1843650674    -0.0737694757     0.7047944500
Bq        -5.1875510276     0.3175749774     1.5152507219
Bq        -5.1840110719    -0.1172521927     0.6147437531
Bq        -5.1857810497     0.1001613924     1.0649972375
Bq        -5.1859641130     0.2336955020     1.1115655533
Bq        -5.1852561219     0.1467300680     0.9314641596
Bq        -5.1863181086     0.2771782190     1.2016162502
Bq        -5.1849021263     0.1032473510     0.8414134627
Bq        -5.1866721042     0.3206609360     1.2916669471
Bq        -5.1845481307     0.0597646340     0.7513627658
Bq        -5.1870260997     0.3641436530     1.3817176440
Bq        -5.1841941352     0.0162819170     0.6613120689
Bq        -5.1873800953     0.4076263700     1.4717683409
Bq        -5.1838401396    -0.0272008000     0.5712613721
Bq        -5.1856101174     0.1902127850     1.0215148565
Bq        -5.1857931807     0.3237468947     1.0680831723
Bq        -5.1850851896     0.2367814607     0.8879817786
Bq        -5.1861471763     0.3672296117     1.1581338692
Bq        -5.1847311940     0.1932987437     0.7979310817
Bq        -5.1865011719     0.4107123287     1.2481845661
Bq        -5.1843771985     0.1498160267     0.7078803848
Bq        -5.1868551675     0.4541950457     1.3382352630
Bq        -5.1840232029     0.1063333097     0.6178296879
Bq        -5.1872091630     0.4976777627     1.4282859598
Bq        -5.1836692073     0.0628505927     0.5277789910
Bq        -5.1854391852     0.2802641777     0.9780324754
Bq        -5.1856222485     0.4137982874     1.0246007913
Bq        -5.1849142573     0.3268328534     0.8444993975
Bq        -5.1859762440     0.4572810044     1.1146514882
Bq        -5.1845602618     0.2833501364     0.7544487006
Bq        -5.1863302396     0.5007637214     1.2047021850
Bq        -5.1842062662     0.2398674194     0.6643980038
Bq        -5.1866842352     0.5442464384     1.2947528819
Bq        -5.1838522706     0.1963847023     0.5743473069
Bq        -5.1870382308     0.5877291554     1.3848035788
Bq        -5.1834982750     0.1529019853     0.4842966100
Bq        -5.1852682529     0.3703155704     0.9345500944
Bq        -5.1854513162     0.5038496800     0.9811184103
Bq        -5.1847433251     0.4168842460     0.8010170165
Bq        -5.1858053118     0.5473323970     1.0711691071
Bq        -5.1843893295     0.3734015290     0.7109663196
Bq        -5.1861593073     0.5908151140     1.1612198040
Bq        -5.1840353339     0.3299188120     0.6209156227
Bq        -5.1865133029     0.6342978311     1.2512705009
Bq        -5.1836813383     0.2864360950     0.5308649258
Bq        -5.1868672985     0.6777805481     1.3413211978
Bq        -5.1833273428     0.2429533780     0.4408142290
Bq        -5.1850973206     0.4603669630     0.8910677134
Bq        -5.1852803839     0.5939010727     0.9376360292
Bq        -5.1845723928     0.5069356387     0.7575346355
Bq        -5.1856343795     0.6373837897     1.0276867261
Bq        -5.1842183972     0.4634529217     0.6674839386
Bq        -5.1859883751     0.6808665067     1.1177374230
Bq        -5.1838644016     0.4199702047     0.5774332417
Bq        -5.1863423706     0.7243492237     1.2077881199
Bq        -5.1835104061     0.3764874877     0.4873825448
Bq        -5.1866963662     0.7678319407     1.2978388167
Bq        -5.1831564105     0.3330047707     0.3973318479
Bq        -5.1849263884     0.5504183557     0.8475853323
Bq        -5.1851094517     0.6839524654     0.8941536482
Bq        -5.1844014605     0.5969870314     0.7140522544
Bq        -5.1854634472     0.7274351824     0.9842043451
Bq        -5.1840474649     0.5535043144     0.6240015575
Bq        -5.1858174428     0.7709178994     1.0742550420
Bq        -5.1836934694     0.5100215974     0.5339508607
Bq        -5.1861714384     0.8144006164     1.1643057388
Bq        -5.1833394738     0.4665388804     0.4439001638
Bq        -5.1865254339     0.8578833334     1.2543564357
Bq        -5.1829854782     0.4230561634     0.3538494669
Bq        -5.1847554561     0.6404697484     0.8041029513
Bq        -5.1849385194     0.7740038581     0.8506712672
Bq        -5.1842305282     0.6870384240     0.6705698734
Bq        -5.1852925150     0.8174865751     0.9407219640
Bq        -5.1838765327     0.6435557070     0.5805191765
Bq        -5.1856465105     0.8609692921     1.0307726609
Bq        -5.1835225371     0.6000729900     0.4904684796
Bq        -5.1860005061     0.9044520091     1.1208233578
Bq        -5.1831685415     0.5565902730     0.4004177827
Bq        -5.1863545017     0.9479347261     1.2108740547
Bq        -5.1828145459     0.5131075560     0.3103670859
Bq        -5.1845845238     0.7305211410     0.7606205703
Bq        -5.1847675871     0.8640552507     0.8071888861
Bq        -5.1840595960     0.7770898167     0.6270874924
Bq        -5.1851215827     0.9075379677     0.8972395830
Bq        -5.1837056004     0.7336070997     0.5370367955
Bq        -5.1854755783     0.9510206847     0.9872902799
Bq        -5.1833516048     0.6901243827     0.4469860986
Bq        -5.1858295738     0.9945034017     1.0773409768
Bq        -5.1829976092     0.6466416657     0.3569354017
Bq        -5.1861835694     1.0379861187     1.1673916737
Bq        -5.1826436137     0.6031589487     0.2668847048
Bq        -5.1844135915     0.8205725337     0.7171381892
Bq        -5.1845966548     0.9541066434     0.7637065051
Bq        -5.1838886637     0.8671412094     0.5836051113
Bq        -5.1849506504     0.9975893604     0.8537572020
Bq        -5.1835346681     0.8236584924     0.4935544144
Bq        -5.1853046460     1.0410720774     0.9438078989
Bq        -5.1831806725     0.7801757754     0.4035037176
Bq        -5.1856586416     1.0845547944     1.0338585957
Bq        -5.1828266770     0.7366930584     0.3134530207
Bq        -5.1860126371     1.1280375114     1.1239092926
Bq        -5.1824726814     0.6932103414     0.2234023238
Bq        -5.1842426593     0.9106239264     0.6736558082
Bq        -5.1844257226     1.0441580361     0.7202241241
Bq        -5.1837177314     0.9571926021     0.5401227303
Bq        -5.1847797181     1.0876407531     0.8102748209
Bq        -5.1833637358     0.9137098850     0.4500720334
Bq        -5.1851337137     1.1311234701     0.9003255178
Bq        -5.1830097403     0.8702271680     0.3600213365
Bq        -5.1854877093     1.1746061871     0.9903762147
Bq        -5.1826557447     0.8267444510     0.2699706396
Bq        -5.1858417049     1.2180889041     1.0804269116
Bq        -5.1823017491     0.7832617340     0.1799199428
Bq        -5.1840717270     1.0006753191     0.6301734272
Bq        -5.1842547903     1.1342094287     0.6767417430
Bq        -5.1835467991     1.0472439947     0.4966403493
Bq        -5.1846087859     1.1776921457     0.7667924399
Bq        -5.1831928036     1.0037612777     0.4065896524
Bq        -5.1849627814     1.2211748627     0.8568431368
Bq        -5.1828388080     0.9602785607     0.3165389555
Bq        -5.1853167770     1.2646575797     0.9468938337
Bq        -5.1824848124     0.9167958437     0.2264882586
Bq        -5.1856707726     1.3081402968     1.0369445306
Bq        -5.1821308168     0.8733131267     0.1364375617
Bq        -5.1839007947     1.0907267117     0.5866910461
Bq        -5.1840838580     1.2242608214     0.6332593620
Bq        -5.1833758669     1.1372953874     0.4531579682
Bq        -5.1844378536     1.2677435384     0.7233100589
Bq        -5.1830218713     1.0938126704     0.3631072713
Bq        -5.1847918492     1.3112262554     0.8133607558
Bq        -5.1826678757     1.0503299534     0.2730565745
Bq        -5.1851458447     1.3547089724     0.9034114526
Bq        -5.1823138801     1.0068472364     0.1830058776
Bq        -5.1854998403     1.3981916894     0.9934621495
Bq        -5.1819598846     0.9633645194     0.0929551807
Bq        -5.1837298624     1.1807781044     0.5432086651
Bq        -5.1839129257     1.3143122141     0.5897769810
Bq        -5.1832049346     1.2273467801     0.4096755872
Bq        -5.1842669213     1.3577949311     0.6798276778
Bq        -5.1828509390     1.1838640631     0.3196248903
Bq        -5.1846209169     1.4012776481     0.7698783747
Bq        -5.1824969434     1.1403813461     0.2295741934
Bq        -5.1849749125     1.4447603651     0.8599290716
Bq        -5.1821429479     1.0968986291     0.1395234965
Bq        -5.1853289080     1.4882430821     0.9499797685
Bq        -5.1817889523     1.0534159120     0.0494727997
Bq        -5.1835589302     1.2708294971     0.4997262841
Bq        -5.1837419935     1.4043636067     0.5462945999
Bq        -5.1830340023     1.3173981727     0.3661932062
Bq        -5.1840959890     1.4478463237     0.6363452968
Bq        -5.1826800067     1.2739154557     0.2761425093
Bq        -5.1844499846     1.4913290408     0.7263959937
Bq        -5.1823260112     1.2304327387     0.1860918124
Bq        -5.1848039802     1.5348117578     0.8164466906
Bq        -5.1819720156     1.1869500217     0.0960411155
Bq        -5.1851579758     1.5782944748     0.9064973875
Bq        -5.1816180200     1.1434673047     0.0059904186
Bq        -5.1833879979     1.3608808897     0.4562439030
Bq        -5.1835710612     1.4944149994     0.5028122189
Bq        -5.1828630700     1.4074495654     0.3227108251
Bq        -5.1839250568     1.5378977164     0.5928629158
Bq        -5.1825090745     1.3639668484     0.2326601282
Bq        -5.1842790523     1.5813804334     0.6829136127
Bq        -5.1821550789     1.3204841314     0.1426094314
Bq        -5.1846330479     1.6248631504     0.7729643095
Bq        -5.1818010833     1.2770014144     0.0525587345
Bq        -5.1849870435     1.6683458674     0.8630150064

1
2
3
4
5
6
7
8
9
10
11
12
13
14
15
16
17
18
19
20
21
22
23
24
25
26
27
28
29
30
31
32
33
34
35
36
37
38
39
40
41
42
43
44
45
46
47
48
49
50
51
52
53
54
55
56
57
58
59
60
61
62
63
64
65
66
67
68
69
70
71
72
73
74
75
76
77
78
79
80
81
82
83
84
85
86
87
88
89
90
91
92
93
94
95
96
97
98
99
100
101
102
103
104
105
106
107
108
109
110
111
112
113
114
115
116
117
118
119
120
121
122
123
124
125
126
127
128
129
130
131
132
133
134
135
136
137
138
139
140
141
142
143
144
145
146
147
148
149
150
151
152
153
154
155
156
157
158
159
160
161
162
163
164
165
166
167
168
169
170
171
172
173
174
175
176
177
178
179
180
181
182
183
184
185
186
187
188
189
190
191
192
193
194
195
196
197
198
199
200
201
202
203
204
205
206
207
208
209
210
211
212
213
214
215
216
217
218
219
220
221
222
223
224
225
226
227
228
229
230
231
232
233
234
235
236

