%nproc=8
%mem=1000MB
# rb3lyp/6-311+g** NMR geom=connectivity

Title

0 1
C    -4.0500558   -0.5771862    0.8136712
H    -5.0263804   -1.0082727    1.0024760
C    -3.9381552    0.6617804    0.2400876
H    -4.8252424    1.2338890   -0.0111295
C    -2.6768410    1.2433246    0.0057578
C    -1.4974121    0.5051527    0.2848253
C    -1.6508332   -0.7338728    0.9404026
H    -0.7713646   -1.2730967    1.2633753
C    -2.8898548   -1.2624035    1.1994307
H    -2.9683706   -2.2124563    1.7152676
C    -2.5773185    2.5963696   -0.4192930
H    -3.4870728    3.1412239   -0.6474055
C    -1.3741895    3.2147896   -0.4364030
H    -1.2997315    4.2742019   -0.6578144
C    -0.1719488    2.4994090   -0.1734588
C    -0.2043917    1.1018437    0.0192689
C     1.0513491    3.2042560   -0.0676222
H     1.0427344    4.2819499   -0.1896997
C     2.1942091    2.5487446    0.2579577
H     3.1168527    3.0912848    0.4334727
C     2.2216473    1.1336562    0.2934990
C     1.0486931    0.3945528    0.0302412
C     3.4483363    0.4614633    0.5573939
H     4.3095794    1.0606054    0.8334846
C     3.5427346   -0.8855926    0.4749463
H     4.4731467   -1.3939704    0.7038822
C     2.4490052   -1.6474447   -0.0196319
C     1.2150704   -1.0057258   -0.3013573
C     0.2531113   -1.7434440   -1.0216591
H    -0.6541356   -1.2535051   -1.3462847
C     0.4494193   -3.0628597   -1.3413779
H    -0.3083162   -3.5944309   -1.9054060
C     1.6251726   -3.7207967   -0.9552541
H     1.7670048   -4.7687404   -1.1927019
C     2.6109872   -3.0144177   -0.3183050
H     3.5525612   -3.4902813   -0.0646367
Bq         1.4337943333    -2.3657814333    -0.6595975500
Bq        -0.8064362479    -4.9352999078    -1.7726751539
Bq        -0.7267127204    -4.8820686056    -1.9482046033
Bq        -0.8462980117    -4.9619155589    -1.6849104292
Bq        -0.6868509566    -4.8554529545    -2.0359693280
Bq        -0.8861597755    -4.9885312100    -1.5971457045
Bq        -0.6469891928    -4.8288373034    -2.1237340527
Bq        -0.9260215393    -5.0151468611    -1.5093809797
Bq        -0.6071274290    -4.8022216522    -2.2114987774
Bq        -0.9658833031    -5.0417625122    -1.4216162550
Bq        -0.5672656652    -4.7756060011    -2.2992635022
Bq        -0.7665744841    -4.9086842567    -1.8604398786
Bq        -0.8174427213    -4.8389069251    -1.7484419034
Bq        -0.7377191937    -4.7856756229    -1.9239713529
Bq        -0.8573044851    -4.8655225762    -1.6606771787
Bq        -0.6978574299    -4.7590599717    -2.0117360776
Bq        -0.8971662489    -4.8921382273    -1.5729124540
Bq        -0.6579956661    -4.7324443206    -2.0995008023
Bq        -0.9370280127    -4.9187538784    -1.4851477293
Bq        -0.6181339024    -4.7058286695    -2.1872655270
Bq        -0.9768897764    -4.9453695295    -1.3973830046
Bq        -0.5782721386    -4.6792130184    -2.2750302517
Bq        -0.7775809575    -4.8122912740    -1.8362066281
Bq        -0.8284491947    -4.7425139424    -1.7242086530
Bq        -0.7487256671    -4.6892826401    -1.8997381024
Bq        -0.8683109585    -4.7691295935    -1.6364439283
Bq        -0.7088639033    -4.6626669890    -1.9875028271
Bq        -0.9081727222    -4.7957452446    -1.5486792035
Bq        -0.6690021395    -4.6360513379    -2.0752675518
Bq        -0.9480344860    -4.8223608957    -1.4609144788
Bq        -0.6291403757    -4.6094356868    -2.1630322765
Bq        -0.9878962498    -4.8489765468    -1.3731497541
Bq        -0.5892786119    -4.5828200357    -2.2507970012
Bq        -0.7885874309    -4.7158982912    -1.8119733777
Bq        -0.8394556680    -4.6461209596    -1.6999754025
Bq        -0.7597321405    -4.5928896574    -1.8755048519
Bq        -0.8793174318    -4.6727366108    -1.6122106778
Bq        -0.7198703767    -4.5662740063    -1.9632695766
Bq        -0.9191791956    -4.6993522619    -1.5244459531
Bq        -0.6800086129    -4.5396583552    -2.0510343014
Bq        -0.9590409594    -4.7259679130    -1.4366812284
Bq        -0.6401468491    -4.5130427041    -2.1387990261
Bq        -0.9989027232    -4.7525835641    -1.3489165037
Bq        -0.6002850853    -4.4864270530    -2.2265637508
Bq        -0.7995939043    -4.6195053085    -1.7877401272
Bq        -0.8504621414    -4.5497279769    -1.6757421521
Bq        -0.7707386138    -4.4964966747    -1.8512716015
Bq        -0.8903239052    -4.5763436280    -1.5879774273
Bq        -0.7308768501    -4.4698810236    -1.9390363262
Bq        -0.9301856690    -4.6029592791    -1.5002127026
Bq        -0.6910150863    -4.4432653725    -2.0268010509
Bq        -0.9700474328    -4.6295749303    -1.4124479779
Bq        -0.6511533225    -4.4166497214    -2.1145657756
Bq        -1.0099091966    -4.6561905814    -1.3246832532
Bq        -0.6112915587    -4.3900340703    -2.2023305003
Bq        -0.8106003776    -4.5231123258    -1.7635068768
Bq        -0.8614686148    -4.4533349942    -1.6515089016
Bq        -0.7817450872    -4.4001036920    -1.8270383510
Bq        -0.9013303786    -4.4799506453    -1.5637441769
Bq        -0.7418833234    -4.3734880409    -1.9148030757
Bq        -0.9411921424    -4.5065662964    -1.4759794522
Bq        -0.7020215596    -4.3468723898    -2.0025678004
Bq        -0.9810539061    -4.5331819475    -1.3882147275
Bq        -0.6621597958    -4.3202567387    -2.0903325252
Bq        -1.0209156699    -4.5597975986    -1.3004500027
Bq        -0.6222980321    -4.2936410876    -2.1780972499
Bq        -0.8216068510    -4.4267193431    -1.7392736263
Bq        -0.8724750882    -4.3569420115    -1.6272756511
Bq        -0.7927515606    -4.3037107093    -1.8028051006
Bq        -0.9123368519    -4.3835576626    -1.5395109264
Bq        -0.7528897968    -4.2770950582    -1.8905698253
Bq        -0.9521986157    -4.4101733137    -1.4517462017
Bq        -0.7130280330    -4.2504794071    -1.9783345500
Bq        -0.9920603795    -4.4367889648    -1.3639814770
Bq        -0.6731662692    -4.2238637560    -2.0660992747
Bq        -1.0319221433    -4.4634046159    -1.2762167523
Bq        -0.6333045054    -4.1972481049    -2.1538639994
Bq        -0.8326133244    -4.3303263604    -1.7150403758
Bq        -0.8834815615    -4.2605490288    -1.6030424007
Bq        -0.8037580340    -4.2073177266    -1.7785718501
Bq        -0.9233433253    -4.2871646799    -1.5152776760
Bq        -0.7638962702    -4.1807020755    -1.8663365748
Bq        -0.9632050891    -4.3137803310    -1.4275129513
Bq        -0.7240345064    -4.1540864244    -1.9541012995
Bq        -1.0030668529    -4.3403959821    -1.3397482265
Bq        -0.6841727426    -4.1274707733    -2.0418660242
Bq        -1.0429286167    -4.3670116332    -1.2519835018
Bq        -0.6443109788    -4.1008551222    -2.1296307490
Bq        -0.8436197977    -4.2339333777    -1.6908071254
Bq        -0.8944880349    -4.1641560461    -1.5788091502
Bq        -0.8147645073    -4.1109247439    -1.7543385996
Bq        -0.9343497987    -4.1907716972    -1.4910444255
Bq        -0.7749027435    -4.0843090928    -1.8421033244
Bq        -0.9742115625    -4.2173873483    -1.4032797008
Bq        -0.7350409798    -4.0576934417    -1.9298680491
Bq        -1.0140733263    -4.2440029994    -1.3155149761
Bq        -0.6951792160    -4.0310777905    -2.0176327738
Bq        -1.0539350901    -4.2706186505    -1.2277502514
Bq        -0.6553174522    -4.0044621394    -2.1053974985
Bq        -0.8546262711    -4.1375403950    -1.6665738749
Bq        -0.9054945083    -4.0677630634    -1.5545758998
Bq        -0.8257709807    -4.0145317612    -1.7301053492
Bq        -0.9453562721    -4.0943787145    -1.4668111750
Bq        -0.7859092169    -3.9879161100    -1.8178700739
Bq        -0.9852180359    -4.1209943656    -1.3790464503
Bq        -0.7460474531    -3.9613004589    -1.9056347986
Bq        -1.0250797996    -4.1476100167    -1.2912817256
Bq        -0.7061856893    -3.9346848078    -1.9933995233
Bq        -1.0649415634    -4.1742256678    -1.2035170009
Bq        -0.6663239256    -3.9080691567    -2.0811642480
Bq        -0.8656327445    -4.0411474123    -1.6423406245
Bq        -0.9165009816    -3.9713700807    -1.5303426493
Bq        -0.8367774541    -3.9181387784    -1.7058720987
Bq        -0.9563627454    -3.9979857318    -1.4425779246
Bq        -0.7969156903    -3.8915231273    -1.7936368234
Bq        -0.9962245092    -4.0246013829    -1.3548131999
Bq        -0.7570539265    -3.8649074762    -1.8814015482
Bq        -1.0360862730    -4.0512170340    -1.2670484752
Bq        -0.7171921627    -3.8382918251    -1.9691662729
Bq        -1.0759480368    -4.0778326851    -1.1792837505
Bq        -0.6773303989    -3.8116761740    -2.0569309976
Bq        -0.8766392179    -3.9447544296    -1.6181073740
Bq        -0.9275074550    -3.8749770979    -1.5061093988
Bq        -0.8477839274    -3.8217457957    -1.6816388483
Bq        -0.9673692188    -3.9015927491    -1.4183446741
Bq        -0.8079221637    -3.7951301446    -1.7694035730
Bq        -1.0072309826    -3.9282084002    -1.3305799494
Bq        -0.7680603999    -3.7685144935    -1.8571682977
Bq        -1.0470927464    -3.9548240513    -1.2428152247
Bq        -0.7281986361    -3.7418988424    -1.9449330224
Bq        -1.0869545102    -3.9814397024    -1.1550505000
Bq        -0.6883368723    -3.7152831913    -2.0326977471
Bq        -0.8876456912    -3.8483614468    -1.5938741236
Bq        -0.9385139284    -3.7785841152    -1.4818761484
Bq        -0.8587904008    -3.7253528130    -1.6574055978
Bq        -0.9783756922    -3.8051997663    -1.3941114237
Bq        -0.8189286370    -3.6987371619    -1.7451703225
Bq        -1.0182374560    -3.8318154174    -1.3063466990
Bq        -0.7790668732    -3.6721215108    -1.8329350472
Bq        -1.0580992198    -3.8584310686    -1.2185819742
Bq        -0.7392051095    -3.6455058597    -1.9206997720
Bq        -1.0979609835    -3.8850467197    -1.1308172495
Bq        -0.6993433457    -3.6188902086    -2.0084644967
Bq        -0.8986521646    -3.7519684641    -1.5696408731
Bq        -0.9495204018    -3.6821911325    -1.4576428979
Bq        -0.8697968742    -3.6289598303    -1.6331723474
Bq        -0.9893821656    -3.7088067836    -1.3698781732
Bq        -0.8299351104    -3.6023441792    -1.7209370721
Bq        -1.0292439293    -3.7354224347    -1.2821134485
Bq        -0.7900733466    -3.5757285281    -1.8087017968
Bq        -1.0691056931    -3.7620380858    -1.1943487238
Bq        -0.7502115828    -3.5491128770    -1.8964665215
Bq        -1.1089674569    -3.7886537369    -1.1065839991
Bq        -0.7103498190    -3.5224972259    -1.9842312462
Bq        -0.9096586380    -3.6555754814    -1.5454076226
Bq        -0.9605268751    -3.5857981498    -1.4334096475
Bq        -0.8808033476    -3.5325668476    -1.6089390969
Bq        -1.0003886389    -3.6124138009    -1.3456449228
Bq        -0.8409415838    -3.5059511965    -1.6967038216
Bq        -1.0402504027    -3.6390294520    -1.2578801980
Bq        -0.8010798200    -3.4793355454    -1.7844685463
Bq        -1.0801121665    -3.6656451031    -1.1701154733
Bq        -0.7612180562    -3.4527198943    -1.8722332710
Bq        -1.1199739303    -3.6922607542    -1.0823507486
Bq        -0.7213562924    -3.4261042432    -1.9599979957
Bq        -0.9206651113    -3.5591824987    -1.5211743722
Bq        -0.9715333485    -3.4894051671    -1.4091763970
Bq        -0.8918098209    -3.4361738649    -1.5847058464
Bq        -1.0113951123    -3.5160208182    -1.3214116723
Bq        -0.8519480571    -3.4095582138    -1.6724705712
Bq        -1.0512568761    -3.5426364693    -1.2336469476
Bq        -0.8120862934    -3.3829425627    -1.7602352959
Bq        -1.0911186399    -3.5692521204    -1.1458822229
Bq        -0.7722245296    -3.3563269116    -1.8480000206
Bq        -1.1309804037    -3.5958677715    -1.0581174982
Bq        -0.7323627658    -3.3297112605    -1.9357647453
Bq        -0.9316715847    -3.4627895160    -1.4969411217
Bq        -0.9825398219    -3.3930121844    -1.3849431466
Bq        -0.9028162943    -3.3397808822    -1.5604725960
Bq        -1.0224015857    -3.4196278355    -1.2971784218
Bq        -0.8629545305    -3.3131652311    -1.6482373207
Bq        -1.0622633495    -3.4462434866    -1.2094136971
Bq        -0.8230927667    -3.2865495800    -1.7360020454
Bq        -1.1021251132    -3.4728591377    -1.1216489724
Bq        -0.7832310029    -3.2599339288    -1.8237667701
Bq        -1.1419868770    -3.4994747888    -1.0338842477
Bq        -0.7433692392    -3.2333182777    -1.9115314948
Bq        -0.9426780581    -3.3663965333    -1.4727078713
Bq        -0.9935462953    -3.2966192017    -1.3607098961
Bq        -0.9138227677    -3.2433878995    -1.5362393455
Bq        -1.0334080590    -3.3232348528    -1.2729451714
Bq        -0.8739610039    -3.2167722484    -1.6240040702
Bq        -1.0732698228    -3.3498505039    -1.1851804467
Bq        -0.8340992401    -3.1901565972    -1.7117687949
Bq        -1.1131315866    -3.3764661550    -1.0974157220
Bq        -0.7942374763    -3.1635409461    -1.7995335197
Bq        -1.1529933504    -3.4030818061    -1.0096509972
Bq        -0.7543757125    -3.1369252950    -1.8872982444
Bq        -0.9536845315    -3.2700035506    -1.4484746208
Bq        -1.0045527686    -3.2002262190    -1.3364766456

1
2
3
4
5
6
7
8
9
10
11
12
13
14
15
16
17
18
19
20
21
22
23
24
25
26
27
28
29
30
31
32
33
34
35
36
37
38
39
40
41
42
43
44
45
46
47
48
49
50
51
52
53
54
55
56
57
58
59
60
61
62
63
64
65
66
67
68
69
70
71
72
73
74
75
76
77
78
79
80
81
82
83
84
85
86
87
88
89
90
91
92
93
94
95
96
97
98
99
100
101
102
103
104
105
106
107
108
109
110
111
112
113
114
115
116
117
118
119
120
121
122
123
124
125
126
127
128
129
130
131
132
133
134
135
136
137
138
139
140
141
142
143
144
145
146
147
148
149
150
151
152
153
154
155
156
157
158
159
160
161
162
163
164
165
166
167
168
169
170
171
172
173
174
175
176
177
178
179
180
181
182
183
184
185
186
187
188
189
190
191
192
193
194
195
196
197
198
199
200
201
202
203
204
205
206
207
208
209
210
211
212
213
214
215
216
217
218
219
220
221
222
223
224
225
226
227
228
229
230
231
232
233
234
235
236

