%nproc=8
%mem=1000MB
# rb3lyp/6-311+g** NMR geom=connectivity

Title

0 1
C    -4.0500558   -0.5771862    0.8136712
H    -5.0263804   -1.0082727    1.0024760
C    -3.9381552    0.6617804    0.2400876
H    -4.8252424    1.2338890   -0.0111295
C    -2.6768410    1.2433246    0.0057578
C    -1.4974121    0.5051527    0.2848253
C    -1.6508332   -0.7338728    0.9404026
H    -0.7713646   -1.2730967    1.2633753
C    -2.8898548   -1.2624035    1.1994307
H    -2.9683706   -2.2124563    1.7152676
C    -2.5773185    2.5963696   -0.4192930
H    -3.4870728    3.1412239   -0.6474055
C    -1.3741895    3.2147896   -0.4364030
H    -1.2997315    4.2742019   -0.6578144
C    -0.1719488    2.4994090   -0.1734588
C    -0.2043917    1.1018437    0.0192689
C     1.0513491    3.2042560   -0.0676222
H     1.0427344    4.2819499   -0.1896997
C     2.1942091    2.5487446    0.2579577
H     3.1168527    3.0912848    0.4334727
C     2.2216473    1.1336562    0.2934990
C     1.0486931    0.3945528    0.0302412
C     3.4483363    0.4614633    0.5573939
H     4.3095794    1.0606054    0.8334846
C     3.5427346   -0.8855926    0.4749463
H     4.4731467   -1.3939704    0.7038822
C     2.4490052   -1.6474447   -0.0196319
C     1.2150704   -1.0057258   -0.3013573
C     0.2531113   -1.7434440   -1.0216591
H    -0.6541356   -1.2535051   -1.3462847
C     0.4494193   -3.0628597   -1.3413779
H    -0.3083162   -3.5944309   -1.9054060
C     1.6251726   -3.7207967   -0.9552541
H     1.7670048   -4.7687404   -1.1927019
C     2.6109872   -3.0144177   -0.3183050
H     3.5525612   -3.4902813   -0.0646367
Bq         2.8635641217     0.3253824562     0.6059299867
Bq         2.7622324504     0.3597768518     1.2977022888
Bq         2.8780400747     0.3204689711     0.5071053721
Bq         2.7477564973     0.3646903368     1.3965269034
Bq         2.8925160278     0.3155554860     0.4082807575
Bq         2.8201362625     0.3401229114     0.9024038305
Bq         2.8063724434     0.4449156119     0.9963668403
Bq         2.8353243495     0.4350886417     0.7987176111
Bq         2.7918964904     0.4498290970     1.0951914549
Bq         2.8498003026     0.4301751566     0.6998929965
Bq         2.7774205374     0.4547425820     1.1940160694
Bq         2.8642762556     0.4252616716     0.6010683819
Bq         2.7629445843     0.4596560671     1.2928406840
Bq         2.8787522087     0.4203481865     0.5022437673
Bq         2.7484686313     0.4645695522     1.3916652986
Bq         2.8932281617     0.4154347014     0.4034191528
Bq         2.8208483965     0.4400021268     0.8975422257
Bq         2.8070845774     0.5447948273     0.9915052355
Bq         2.8360364835     0.5349678571     0.7938560063
Bq         2.7926086243     0.5497083123     1.0903298501
Bq         2.8505124365     0.5300543720     0.6950313918
Bq         2.7781326713     0.5546217974     1.1891544647
Bq         2.8649883896     0.5251408869     0.5962067772
Bq         2.7636567183     0.5595352825     1.2879790793
Bq         2.8794643426     0.5202274018     0.4973821626
Bq         2.7491807652     0.5644487676     1.3868036938
Bq         2.8939402957     0.5153139168     0.3985575480
Bq         2.8215605304     0.5398813422     0.8926806209
Bq         2.8077967113     0.6446740426     0.9866436307
Bq         2.8367486174     0.6348470725     0.7889944016
Bq         2.7933207583     0.6495875277     1.0854682453
Bq         2.8512245705     0.6299335874     0.6901697870
Bq         2.7788448052     0.6545010128     1.1842928599
Bq         2.8657005235     0.6250201023     0.5913451724
Bq         2.7643688522     0.6594144979     1.2831174745
Bq         2.8801764765     0.6201066172     0.4925205578
Bq         2.7498928991     0.6643279830     1.3819420891
Bq         2.8946524296     0.6151931321     0.3936959432
Bq         2.8222726644     0.6397605576     0.8878190162
Bq         2.8085088453     0.7445532580     0.9817820260
Bq         2.8374607514     0.7347262878     0.7841327968
Bq         2.7940328922     0.7494667431     1.0806066406
Bq         2.8519367044     0.7298128028     0.6853081822
Bq         2.7795569392     0.7543802282     1.1794312551
Bq         2.8664126574     0.7248993177     0.5864835676
Bq         2.7650809861     0.7592937133     1.2782558697
Bq         2.8808886105     0.7199858326     0.4876589530
Bq         2.7506050331     0.7642071983     1.3770804843
Bq         2.8953645635     0.7150723475     0.3888343385
Bq         2.8229847983     0.7396397729     0.8829574114
Bq         2.8092209792     0.8444324734     0.9769204212
Bq         2.8381728853     0.8346055032     0.7792711920
Bq         2.7947450262     0.8493459585     1.0757450358
Bq         2.8526488383     0.8296920181     0.6804465775
Bq         2.7802690731     0.8542594436     1.1745696504
Bq         2.8671247914     0.8247785331     0.5816219629
Bq         2.7657931201     0.8591729286     1.2733942650
Bq         2.8816007444     0.8198650480     0.4827973483
Bq         2.7513171670     0.8640864137     1.3722188795
Bq         2.8960766975     0.8149515629     0.3839727337
Bq         2.8236969323     0.8395189883     0.8780958066
Bq         2.8099331132     0.9443116888     0.9720588164
Bq         2.8388850192     0.9344847186     0.7744095873
Bq         2.7954571601     0.9492251739     1.0708834310
Bq         2.8533609723     0.9295712335     0.6755849727
Bq         2.7809812071     0.9541386589     1.1697080456
Bq         2.8678369253     0.9246577484     0.5767603581
Bq         2.7665052540     0.9590521440     1.2685326602
Bq         2.8823128784     0.9197442634     0.4779357435
Bq         2.7520293010     0.9639656291     1.3673572748
Bq         2.8967888314     0.9148307783     0.3791111289
Bq         2.8244090662     0.9393982037     0.8732342019
Bq         2.8106452471     1.0441909041     0.9671972117
Bq         2.8395971532     1.0343639340     0.7695479825
Bq         2.7961692940     1.0491043892     1.0660218263
Bq         2.8540731062     1.0294504489     0.6707233679
Bq         2.7816933410     1.0540178743     1.1648464408
Bq         2.8685490593     1.0245369638     0.5718987533
Bq         2.7672173880     1.0589313594     1.2636710554
Bq         2.8830250123     1.0196234787     0.4730741387
Bq         2.7527414349     1.0638448445     1.3624956700
Bq         2.8975009654     1.0147099936     0.3742495242
Bq         2.8251212001     1.0392774191     0.8683725971
Bq         2.8113573810     1.1440701195     0.9623356069
Bq         2.8403092871     1.1342431494     0.7646863777
Bq         2.7968814280     1.1489836046     1.0611602215
Bq         2.8547852402     1.1293296643     0.6658617632
Bq         2.7824054749     1.1538970897     1.1599848361
Bq         2.8692611932     1.1244161792     0.5670371486
Bq         2.7679295219     1.1588105748     1.2588094507
Bq         2.8837371463     1.1195026941     0.4682125340
Bq         2.7534535689     1.1637240599     1.3576340652
Bq         2.8982130993     1.1145892090     0.3693879194
Bq         2.8258333341     1.1391566344     0.8635109923
Bq         2.8120695150     1.2439493349     0.9574740021
Bq         2.8410214211     1.2341223647     0.7598247730
Bq         2.7975935619     1.2488628200     1.0562986167
Bq         2.8554973741     1.2292088797     0.6610001584
Bq         2.7831176089     1.2537763051     1.1551232313
Bq         2.8699733272     1.2242953946     0.5621755438
Bq         2.7686416558     1.2586897901     1.2539478459
Bq         2.8844492802     1.2193819095     0.4633509292
Bq         2.7541657028     1.2636032752     1.3527724605
Bq         2.8989252332     1.2144684244     0.3645263146
Bq         2.8265454680     1.2390358498     0.8586493876
Bq         2.8127816489     1.3438285503     0.9526123974
Bq         2.8417335550     1.3340015801     0.7549631682
Bq         2.7983056959     1.3487420354     1.0514370120
Bq         2.8562095081     1.3290880950     0.6561385536
Bq         2.7838297428     1.3536555204     1.1502616265
Bq         2.8706854611     1.3241746099     0.5573139390
Bq         2.7693537898     1.3585690055     1.2490862411
Bq         2.8851614141     1.3192611249     0.4584893244
Bq         2.7548778367     1.3634824906     1.3479108557
Bq         2.8996373672     1.3143476398     0.3596647099
Bq         2.8272576020     1.3389150652     0.8537877828
Bq         2.8134937829     1.4437077657     0.9477507926
Bq         2.8424456889     1.4338807955     0.7501015634
Bq         2.7990178298     1.4486212507     1.0465754072
Bq         2.8569216420     1.4289673104     0.6512769489
Bq         2.7845418768     1.4535347358     1.1454000218
Bq         2.8713975950     1.4240538253     0.5524523343
Bq         2.7700659237     1.4584482209     1.2442246364
Bq         2.8858735481     1.4191403402     0.4536277197
Bq         2.7555899707     1.4633617060     1.3430492509
Bq         2.9003495011     1.4142268552     0.3548031051
Bq         2.8279697359     1.4387942806     0.8489261780
Bq         2.8142059168     1.5435869810     0.9428891878
Bq         2.8431578229     1.5337600109     0.7452399587
Bq         2.7997299638     1.5485004661     1.0417138024
Bq         2.8576337759     1.5288465258     0.6464153441
Bq         2.7852540107     1.5534139512     1.1405384170
Bq         2.8721097290     1.5239330407     0.5475907295
Bq         2.7707780577     1.5583274363     1.2393630316
Bq         2.8865856820     1.5190195556     0.4487661149
Bq         2.7563021046     1.5632409214     1.3381876462
Bq         2.9010616351     1.5141060705     0.3499415003
Bq         2.8286818698     1.5386734959     0.8440645733
Bq         2.8149180507     1.6434661964     0.9380275831
Bq         2.8438699568     1.6336392262     0.7403783539
Bq         2.8004420977     1.6483796815     1.0368521977
Bq         2.8583459099     1.6287257412     0.6415537393
Bq         2.7859661447     1.6532931666     1.1356768122
Bq         2.8728218629     1.6238122561     0.5427291247
Bq         2.7714901916     1.6582066517     1.2345014268
Bq         2.8872978160     1.6188987710     0.4439045101
Bq         2.7570142386     1.6631201367     1.3333260414
Bq         2.9017737690     1.6139852859     0.3450798956
Bq         2.8293940038     1.6385527113     0.8392029685
Bq         2.8156301847     1.7433454118     0.9331659783
Bq         2.8445820908     1.7335184416     0.7355167491
Bq         2.8011542316     1.7482588969     1.0319905929
Bq         2.8590580438     1.7286049565     0.6366921346
Bq         2.7866782786     1.7531723819     1.1308152075
Bq         2.8735339969     1.7236914715     0.5378675200
Bq         2.7722023256     1.7580858670     1.2296398221
Bq         2.8880099499     1.7187779864     0.4390429054
Bq         2.7577263725     1.7629993521     1.3284644366
Bq         2.9024859030     1.7138645013     0.3402182908
Bq         2.8301061377     1.7384319267     0.8343413637
Bq         2.8163423186     1.8432246272     0.9283043735
Bq         2.8452942247     1.8333976570     0.7306551444
Bq         2.8018663656     1.8481381122     1.0271289881
Bq         2.8597701778     1.8284841719     0.6318305298
Bq         2.7873904125     1.8530515973     1.1259536027
Bq         2.8742461308     1.8235706868     0.5330059152
Bq         2.7729144595     1.8579650824     1.2247782173
Bq         2.8887220838     1.8186572017     0.4341813006
Bq         2.7584385065     1.8628785675     1.3236028319
Bq         2.9031980369     1.8137437167     0.3353566860
Bq         2.8308182717     1.8383111421     0.8294797590
Bq         2.8170544526     1.9431038425     0.9234427688
Bq         2.8460063587     1.9332768724     0.7257935396
Bq         2.8025784995     1.9480173276     1.0222673834
Bq         2.8604823117     1.9283633873     0.6269689250
Bq         2.7881025465     1.9529308127     1.1210919979
Bq         2.8749582647     1.9234499022     0.5281443104
Bq         2.7736265934     1.9578442978     1.2199166125
Bq         2.8894342178     1.9185364171     0.4293196959
Bq         2.7591506404     1.9627577829     1.3187412271
Bq         2.9039101708     1.9136229320     0.3304950813
Bq         2.8315304056     1.9381903575     0.8246181542
Bq         2.8177665865     2.0429830579     0.9185811640
Bq         2.8467184926     2.0331560878     0.7209319348
Bq         2.8032906335     2.0478965430     1.0174057786
Bq         2.8611944456     2.0282426027     0.6221073203
Bq         2.7888146804     2.0528100281     1.1162303932
Bq         2.8756703987     2.0233291176     0.5232827057
Bq         2.7743387274     2.0577235132     1.2150550078
Bq         2.8901463517     2.0184156325     0.4244580911
Bq         2.7598627743     2.0626369982     1.3138796223
Bq         2.9046223048     2.0135021474     0.3256334765
Bq         2.8322425396     2.0380695728     0.8197565494
Bq         2.8184787205     2.1428622733     0.9137195592
Bq         2.8474306265     2.1330353031     0.7160703301
Bq         2.8040027674     2.1477757584     1.0125441738
Bq         2.8619065796     2.1281218180     0.6172457155
Bq         2.7895268144     2.1526892435     1.1113687884
Bq         2.8763825326     2.1232083330     0.5184211009
Bq         2.7750508613     2.1576027285     1.2101934030

1
2
3
4
5
6
7
8
9
10
11
12
13
14
15
16
17
18
19
20
21
22
23
24
25
26
27
28
29
30
31
32
33
34
35
36
37
38
39
40
41
42
43
44
45
46
47
48
49
50
51
52
53
54
55
56
57
58
59
60
61
62
63
64
65
66
67
68
69
70
71
72
73
74
75
76
77
78
79
80
81
82
83
84
85
86
87
88
89
90
91
92
93
94
95
96
97
98
99
100
101
102
103
104
105
106
107
108
109
110
111
112
113
114
115
116
117
118
119
120
121
122
123
124
125
126
127
128
129
130
131
132
133
134
135
136
137
138
139
140
141
142
143
144
145
146
147
148
149
150
151
152
153
154
155
156
157
158
159
160
161
162
163
164
165
166
167
168
169
170
171
172
173
174
175
176
177
178
179
180
181
182
183
184
185
186
187
188
189
190
191
192
193
194
195
196
197
198
199
200
201
202
203
204
205
206
207
208
209
210
211
212
213
214
215
216
217
218
219
220
221
222
223
224
225
226
227
228
229
230
231
232
233
234
235
236

