%nproc=8
%mem=1000MB
# rb3lyp/6-311+g** NMR geom=connectivity

Title

0 1
C    -4.0500558   -0.5771862    0.8136712
H    -5.0263804   -1.0082727    1.0024760
C    -3.9381552    0.6617804    0.2400876
H    -4.8252424    1.2338890   -0.0111295
C    -2.6768410    1.2433246    0.0057578
C    -1.4974121    0.5051527    0.2848253
C    -1.6508332   -0.7338728    0.9404026
H    -0.7713646   -1.2730967    1.2633753
C    -2.8898548   -1.2624035    1.1994307
H    -2.9683706   -2.2124563    1.7152676
C    -2.5773185    2.5963696   -0.4192930
H    -3.4870728    3.1412239   -0.6474055
C    -1.3741895    3.2147896   -0.4364030
H    -1.2997315    4.2742019   -0.6578144
C    -0.1719488    2.4994090   -0.1734588
C    -0.2043917    1.1018437    0.0192689
C     1.0513491    3.2042560   -0.0676222
H     1.0427344    4.2819499   -0.1896997
C     2.1942091    2.5487446    0.2579577
H     3.1168527    3.0912848    0.4334727
C     2.2216473    1.1336562    0.2934990
C     1.0486931    0.3945528    0.0302412
C     3.4483363    0.4614633    0.5573939
H     4.3095794    1.0606054    0.8334846
C     3.5427346   -0.8855926    0.4749463
H     4.4731467   -1.3939704    0.7038822
C     2.4490052   -1.6474447   -0.0196319
C     1.2150704   -1.0057258   -0.3013573
C     0.2531113   -1.7434440   -1.0216591
H    -0.6541356   -1.2535051   -1.3462847
C     0.4494193   -3.0628597   -1.3413779
H    -0.3083162   -3.5944309   -1.9054060
C     1.6251726   -3.7207967   -0.9552541
H     1.7670048   -4.7687404   -1.1927019
C     2.6109872   -3.0144177   -0.3183050
H     3.5525612   -3.4902813   -0.0646367
Bq        -5.0835960959     1.9415860041     0.5093771925
Bq        -5.0814721224     1.6806897021    -0.0309269888
Bq        -5.0839500915     1.9850687211     0.5994278894
Bq        -5.0811181269     1.6372069851    -0.1209776857
Bq        -5.0843040870     2.0285514381     0.6894785862
Bq        -5.0807641313     1.5937242681    -0.2110283826
Bq        -5.0825341092     1.8111378531     0.2392251018
Bq        -5.0827171725     1.9446719628     0.2857934177
Bq        -5.0820091813     1.8577065288     0.1056920239
Bq        -5.0830711680     1.9881546798     0.3758441146
Bq        -5.0816551857     1.8142238118     0.0156413270
Bq        -5.0834251636     2.0316373968     0.4658948114
Bq        -5.0813011902     1.7707410947    -0.0744093699
Bq        -5.0837791592     2.0751201138     0.5559455083
Bq        -5.0809471946     1.7272583777    -0.1644600667
Bq        -5.0841331548     2.1186028308     0.6459962052
Bq        -5.0805931990     1.6837756607    -0.2545107636
Bq        -5.0823631769     1.9011892458     0.1957427208
Bq        -5.0825462402     2.0347233554     0.2423110366
Bq        -5.0818382490     1.9477579214     0.0622096429
Bq        -5.0829002358     2.0782060724     0.3323617335
Bq        -5.0814842535     1.9042752044    -0.0278410540
Bq        -5.0832542313     2.1216887894     0.4224124304
Bq        -5.0811302579     1.8607924874    -0.1178917509
Bq        -5.0836082269     2.1651715065     0.5124631273
Bq        -5.0807762623     1.8173097704    -0.2079424478
Bq        -5.0839622225     2.2086542235     0.6025138242
Bq        -5.0804222667     1.7738270534    -0.2979931447
Bq        -5.0821922446     1.9912406384     0.1522603398
Bq        -5.0823753079     2.1247747481     0.1988286556
Bq        -5.0816673168     2.0378093141     0.0187272618
Bq        -5.0827293035     2.1682574651     0.2888793525
Bq        -5.0813133212     1.9943265971    -0.0713234350
Bq        -5.0830832991     2.2117401821     0.3789300494
Bq        -5.0809593256     1.9508438801    -0.1613741319
Bq        -5.0834372946     2.2552228991     0.4689807463
Bq        -5.0806053300     1.9073611631    -0.2514248288
Bq        -5.0837912902     2.2987056161     0.5590314431
Bq        -5.0802513345     1.8638784461    -0.3414755257
Bq        -5.0820213123     2.0812920311     0.1087779587
Bq        -5.0822043756     2.2148261408     0.1553462746
Bq        -5.0814963845     2.1278607068    -0.0247551192
Bq        -5.0825583712     2.2583088578     0.2453969715
Bq        -5.0811423889     2.0843779898    -0.1148058161
Bq        -5.0829123668     2.3017915748     0.3354476683
Bq        -5.0807883933     2.0408952728    -0.2048565130
Bq        -5.0832663624     2.3452742918     0.4254983652
Bq        -5.0804343978     1.9974125558    -0.2949072098
Bq        -5.0836203579     2.3887570088     0.5155490621
Bq        -5.0800804022     1.9539298388    -0.3849579067
Bq        -5.0818503801     2.1713434238     0.0652955777
Bq        -5.0820334434     2.3048775334     0.1118638935
Bq        -5.0813254522     2.2179120994    -0.0682375002
Bq        -5.0823874389     2.3483602505     0.2019145904
Bq        -5.0809714566     2.1744293824    -0.1582881971
Bq        -5.0827414345     2.3918429675     0.2919652873
Bq        -5.0806174611     2.1309466654    -0.2483388940
Bq        -5.0830954301     2.4353256845     0.3820159842
Bq        -5.0802634655     2.0874639484    -0.3383895909
Bq        -5.0834494257     2.4788084015     0.4720666811
Bq        -5.0799094699     2.0439812314    -0.4284402878
Bq        -5.0816794478     2.2613948164     0.0218131967
Bq        -5.0818625111     2.3949289261     0.0683815125
Bq        -5.0811545199     2.3079634921    -0.1117198813
Bq        -5.0822165067     2.4384116431     0.1584322094
Bq        -5.0808005244     2.2644807751    -0.2017705781
Bq        -5.0825705022     2.4818943601     0.2484829063
Bq        -5.0804465288     2.2209980581    -0.2918212750
Bq        -5.0829244978     2.5253770771     0.3385336032
Bq        -5.0800925332     2.1775153411    -0.3818719719
Bq        -5.0832784934     2.5688597941     0.4285843000
Bq        -5.0797385376     2.1340326241    -0.4719226688
Bq        -5.0815085155     2.3514462091    -0.0216691844
Bq        -5.0816915788     2.4849803188     0.0248991315
Bq        -5.0809835877     2.3980148848    -0.1552022623
Bq        -5.0820455744     2.5284630358     0.1149498284
Bq        -5.0806295921     2.3545321678    -0.2452529592
Bq        -5.0823995700     2.5719457528     0.2050005252
Bq        -5.0802755965     2.3110494508    -0.3353036561
Bq        -5.0827535655     2.6154284698     0.2950512221
Bq        -5.0799216009     2.2675667338    -0.4253543529
Bq        -5.0831075611     2.6589111868     0.3851019190
Bq        -5.0795676054     2.2240840168    -0.5154050498
Bq        -5.0813375832     2.4414976018    -0.0651515654
Bq        -4.9902389652    -2.0175893147     2.1994112870
Bq        -4.9895309741    -2.1045547487     2.0193098933
Bq        -4.9905929608    -1.9741065977     2.2894619839
Bq        -4.9891769785    -2.1480374658     1.9292591964
Bq        -4.9909469564    -1.9306238807     2.3795126808
Bq        -4.9888229829    -2.1915201828     1.8392084995
Bq        -4.9913009519    -1.8871411637     2.4695633777
Bq        -4.9884689873    -2.2350028998     1.7491578026
Bq        -4.9916549475    -1.8436584467     2.5596140746
Bq        -4.9881149918    -2.2784856168     1.6591071057
Bq        -4.9898849696    -2.0610720317     2.1093605902
Bq        -4.9900680329    -1.9275379221     2.1559289060
Bq        -4.9893600418    -2.0145033561     1.9758275122
Bq        -4.9904220285    -1.8840552051     2.2459796029
Bq        -4.9890060462    -2.0579860731     1.8857768154
Bq        -4.9907760241    -1.8405724881     2.3360302998
Bq        -4.9886520506    -2.1014687901     1.7957261185
Bq        -4.9911300197    -1.7970897711     2.4260809967
Bq        -4.9882980551    -2.1449515071     1.7056754216
Bq        -4.9914840152    -1.7536070540     2.5161316935
Bq        -4.9879440595    -2.1884342241     1.6156247247
Bq        -4.9897140374    -1.9710206391     2.0658782091
Bq        -4.9898971007    -1.8374865294     2.1124465250
Bq        -4.9891891095    -1.9244519634     1.9323451312
Bq        -4.9902510962    -1.7940038124     2.2024972219
Bq        -4.9888351139    -1.9679346804     1.8422944343
Bq        -4.9906050918    -1.7505210954     2.2925479187
Bq        -4.9884811184    -2.0114173974     1.7522437374
Bq        -4.9909590874    -1.7070383784     2.3825986156
Bq        -4.9881271228    -2.0549001144     1.6621930406
Bq        -4.9913130830    -1.6635556614     2.4726493125
Bq        -4.9877731272    -2.0983828314     1.5721423437
Bq        -4.9895431051    -1.8809692464     2.0223958281
Bq        -4.9897261684    -1.7474351367     2.0689641439
Bq        -4.9890181772    -1.8344005707     1.8888627502
Bq        -4.9900801640    -1.7039524197     2.1590148408
Bq        -4.9886641817    -1.8778832877     1.7988120533
Bq        -4.9904341595    -1.6604697027     2.2490655377
Bq        -4.9883101861    -1.9213660047     1.7087613564
Bq        -4.9907881551    -1.6169869857     2.3391162346
Bq        -4.9879561905    -1.9648487217     1.6187106595
Bq        -4.9911421507    -1.5735042687     2.4291669315
Bq        -4.9876021949    -2.0083314388     1.5286599627
Bq        -4.9893721728    -1.7909178537     1.9789134471
Bq        -4.9895552361    -1.6573837441     2.0254817629
Bq        -4.9888472450    -1.7443491781     1.8453803692
Bq        -4.9899092317    -1.6139010270     2.1155324598
Bq        -4.9884932494    -1.7878318951     1.7553296723
Bq        -4.9902632273    -1.5704183100     2.2055831567
Bq        -4.9881392538    -1.8313146121     1.6652789754
Bq        -4.9906172228    -1.5269355930     2.2956338536
Bq        -4.9877852582    -1.8747973291     1.5752282785
Bq        -4.9909712184    -1.4834528760     2.3856845504
Bq        -4.9874312627    -1.9182800461     1.4851775816
Bq        -4.9892012405    -1.7008664611     1.9354310660
Bq        -4.9893843038    -1.5673323514     1.9819993819
Bq        -4.9886763127    -1.6542977854     1.8018979881
Bq        -4.9897382994    -1.5238496344     2.0720500788
Bq        -4.9883223171    -1.6977805024     1.7118472912
Bq        -4.9900922950    -1.4803669174     2.1621007756
Bq        -4.9879683215    -1.7412632194     1.6217965944
Bq        -4.9904462906    -1.4368842004     2.2521514725
Bq        -4.9876143260    -1.7847459364     1.5317458975
Bq        -4.9908002861    -1.3934014834     2.3422021694
Bq        -4.9872603304    -1.8282286534     1.4416952006
Bq        -4.9890303083    -1.6108150684     1.8919486850
Bq        -4.9892133716    -1.4772809587     1.9385170009
Bq        -4.9885053804    -1.5642463927     1.7584156071
Bq        -4.9895673671    -1.4337982417     2.0285676977
Bq        -4.9881513848    -1.6077291097     1.6683649102
Bq        -4.9899213627    -1.3903155247     2.1186183946
Bq        -4.9877973893    -1.6512118267     1.5783142133
Bq        -4.9902753583    -1.3468328077     2.2086690915
Bq        -4.9874433937    -1.6946945437     1.4882635164
Bq        -4.9906293539    -1.3033500907     2.2987197884
Bq        -4.9870893981    -1.7381772607     1.3982128196
Bq        -4.9888593760    -1.5207636757     1.8484663040
Bq        -4.9890424393    -1.3872295660     1.8950346198
Bq        -4.9883344481    -1.4741950001     1.7149332261
Bq        -4.9893964349    -1.3437468490     1.9850853167
Bq        -4.9879804526    -1.5176777171     1.6248825292
Bq        -4.9897504304    -1.3002641320     2.0751360136
Bq        -4.9876264570    -1.5611604341     1.5348318323
Bq        -4.9901044260    -1.2567814150     2.1651867105
Bq        -4.9872724614    -1.6046431511     1.4447811354
Bq        -4.9904584216    -1.2132986980     2.2552374073
Bq        -4.9869184658    -1.6481258681     1.3547304385
Bq        -4.9886884437    -1.4307122830     1.8049839229
Bq        -4.9888715070    -1.2971781734     1.8515522388
Bq        -4.9881635159    -1.3841436074     1.6714508450
Bq        -4.9892255026    -1.2536954564     1.9416029357
Bq        -4.9878095203    -1.4276263244     1.5814001481
Bq        -4.9895794982    -1.2102127394     2.0316536326
Bq        -4.9874555247    -1.4711090414     1.4913494513
Bq        -4.9899334937    -1.1667300224     2.1217043294
Bq        -4.9871015291    -1.5145917584     1.4012987544
Bq        -4.9902874893    -1.1232473054     2.2117550263
Bq        -4.9867475336    -1.5580744754     1.3112480575
Bq        -4.9885175114    -1.3406608904     1.7615015419
Bq        -4.9887005747    -1.2071267807     1.8080698578
Bq        -4.9879925836    -1.2940922147     1.6279684640
Bq        -4.9890545703    -1.1636440637     1.8981205546
Bq        -4.9876385880    -1.3375749317     1.5379177671
Bq        -4.9894085659    -1.1201613467     1.9881712515
Bq        -4.9872845924    -1.3810576487     1.4478670702
Bq        -4.9897625615    -1.0766786297     2.0782219484
Bq        -4.9869305969    -1.4245403657     1.3578163733
Bq        -4.9901165570    -1.0331959127     2.1682726453
Bq        -4.9865766013    -1.4680230827     1.2677656765
Bq        -4.9883465792    -1.2506094977     1.7180191609
Bq        -4.9885296425    -1.1170753880     1.7645874767
Bq        -4.9878216513    -1.2040408220     1.5844860830
Bq        -4.9888836380    -1.0735926710     1.8546381736
Bq        -4.9874676557    -1.2475235390     1.4944353861
Bq        -4.9892376336    -1.0301099540     1.9446888705
Bq        -4.9871136602    -1.2910062560     1.4043846892

1
2
3
4
5
6
7
8
9
10
11
12
13
14
15
16
17
18
19
20
21
22
23
24
25
26
27
28
29
30
31
32
33
34
35
36
37
38
39
40
41
42
43
44
45
46
47
48
49
50
51
52
53
54
55
56
57
58
59
60
61
62
63
64
65
66
67
68
69
70
71
72
73
74
75
76
77
78
79
80
81
82
83
84
85
86
87
88
89
90
91
92
93
94
95
96
97
98
99
100
101
102
103
104
105
106
107
108
109
110
111
112
113
114
115
116
117
118
119
120
121
122
123
124
125
126
127
128
129
130
131
132
133
134
135
136
137
138
139
140
141
142
143
144
145
146
147
148
149
150
151
152
153
154
155
156
157
158
159
160
161
162
163
164
165
166
167
168
169
170
171
172
173
174
175
176
177
178
179
180
181
182
183
184
185
186
187
188
189
190
191
192
193
194
195
196
197
198
199
200
201
202
203
204
205
206
207
208
209
210
211
212
213
214
215
216
217
218
219
220
221
222
223
224
225
226
227
228
229
230
231
232
233
234
235
236

