%nproc=8
%mem=1000MB
# rb3lyp/6-311+g** NMR geom=connectivity

Title

0 1
C    -4.0500558   -0.5771862    0.8136712
H    -5.0263804   -1.0082727    1.0024760
C    -3.9381552    0.6617804    0.2400876
H    -4.8252424    1.2338890   -0.0111295
C    -2.6768410    1.2433246    0.0057578
C    -1.4974121    0.5051527    0.2848253
C    -1.6508332   -0.7338728    0.9404026
H    -0.7713646   -1.2730967    1.2633753
C    -2.8898548   -1.2624035    1.1994307
H    -2.9683706   -2.2124563    1.7152676
C    -2.5773185    2.5963696   -0.4192930
H    -3.4870728    3.1412239   -0.6474055
C    -1.3741895    3.2147896   -0.4364030
H    -1.2997315    4.2742019   -0.6578144
C    -0.1719488    2.4994090   -0.1734588
C    -0.2043917    1.1018437    0.0192689
C     1.0513491    3.2042560   -0.0676222
H     1.0427344    4.2819499   -0.1896997
C     2.1942091    2.5487446    0.2579577
H     3.1168527    3.0912848    0.4334727
C     2.2216473    1.1336562    0.2934990
C     1.0486931    0.3945528    0.0302412
C     3.4483363    0.4614633    0.5573939
H     4.3095794    1.0606054    0.8334846
C     3.5427346   -0.8855926    0.4749463
H     4.4731467   -1.3939704    0.7038822
C     2.4490052   -1.6474447   -0.0196319
C     1.2150704   -1.0057258   -0.3013573
C     0.2531113   -1.7434440   -1.0216591
H    -0.6541356   -1.2535051   -1.3462847
C     0.4494193   -3.0628597   -1.3413779
H    -0.3083162   -3.5944309   -1.9054060
C     1.6251726   -3.7207967   -0.9552541
H     1.7670048   -4.7687404   -1.1927019
C     2.6109872   -3.0144177   -0.3183050
H     3.5525612   -3.4902813   -0.0646367
Bq        -1.1453188036     0.2858190092     0.5996074961
Bq        -1.1645287103     0.4085655960     1.0839258366
Bq        -1.1414768223     0.2612696918     0.5027438280
Bq        -1.1683706916     0.4331149134     1.1807895047
Bq        -1.1376348410     0.2367203744     0.4058801599
Bq        -1.1722126729     0.4576642308     1.2776531728
Bq        -1.1337928596     0.2121710570     0.3090164919
Bq        -1.1530027663     0.3349176439     0.7933348323
Bq        -1.1558717934     0.4564067932     0.8656684710
Bq        -1.1481878307     0.4073081585     0.6719411348
Bq        -1.1597137747     0.4809561106     0.9625321391
Bq        -1.1443458494     0.3827588411     0.5750774667
Bq        -1.1635557561     0.5055054280     1.0593958071
Bq        -1.1405038681     0.3582095237     0.4782137986
Bq        -1.1673977374     0.5300547454     1.1562594752
Bq        -1.1366618868     0.3336602064     0.3813501305
Bq        -1.1712397187     0.5546040627     1.2531231433
Bq        -1.1328199054     0.3091108890     0.2844864624
Bq        -1.1520298121     0.4318574759     0.7688048029
Bq        -1.1548988392     0.5533466252     0.8411384415
Bq        -1.1472148765     0.5042479904     0.6474111054
Bq        -1.1587408205     0.5778959425     0.9380021096
Bq        -1.1433728952     0.4796986730     0.5505474373
Bq        -1.1625828018     0.6024452599     1.0348657777
Bq        -1.1395309139     0.4551493557     0.4536837692
Bq        -1.1664247832     0.6269945773     1.1317294458
Bq        -1.1356889325     0.4306000383     0.3568201011
Bq        -1.1702667645     0.6515438947     1.2285931139
Bq        -1.1318469512     0.4060507209     0.2599564330
Bq        -1.1510568578     0.5287973078     0.7442747734
Bq        -1.1539258850     0.6502864571     0.8166084121
Bq        -1.1462419223     0.6011878224     0.6228810759
Bq        -1.1577678663     0.6748357745     0.9134720802
Bq        -1.1423999410     0.5766385050     0.5260174078
Bq        -1.1616098476     0.6993850919     1.0103357483
Bq        -1.1385579596     0.5520891876     0.4291537398
Bq        -1.1654518289     0.7239344092     1.1071994164
Bq        -1.1347159783     0.5275398702     0.3322900717
Bq        -1.1692938103     0.7484837266     1.2040630845
Bq        -1.1308739970     0.5029905529     0.2354264036
Bq        -1.1500839036     0.6257371397     0.7197447440
Bq        -1.1529529307     0.7472262890     0.7920783827
Bq        -1.1452689681     0.6981276543     0.5983510465
Bq        -1.1567949121     0.7717756064     0.8889420508
Bq        -1.1414269867     0.6735783369     0.5014873784
Bq        -1.1606368934     0.7963249238     0.9858057189
Bq        -1.1375850054     0.6490290195     0.4046237103
Bq        -1.1644788747     0.8208742412     1.0826693870
Bq        -1.1337430241     0.6244797022     0.3077600422
Bq        -1.1683208560     0.8454235585     1.1795330550
Bq        -1.1299010428     0.5999303848     0.2108963741
Bq        -1.1491109494     0.7226769717     0.6952147146
Bq        -1.1519799765     0.8441661210     0.7675483533
Bq        -1.1442960138     0.7950674862     0.5738210171
Bq        -1.1558219578     0.8687154384     0.8644120213
Bq        -1.1404540325     0.7705181689     0.4769573490
Bq        -1.1596639392     0.8932647557     0.9612756894
Bq        -1.1366120512     0.7459688515     0.3800936809
Bq        -1.1635059205     0.9178140731     1.0581393575
Bq        -1.1327700699     0.7214195341     0.2832300128
Bq        -1.1673479018     0.9423633905     1.1550030256
Bq        -1.1289280885     0.6968702167     0.1863663447
Bq        -1.1481379952     0.8196168036     0.6706846852
Bq        -1.1510070223     0.9411059529     0.7430183238
Bq        -1.1433230596     0.8920073182     0.5492909877
Bq        -1.1548490036     0.9656552703     0.8398819919
Bq        -1.1394810783     0.8674580008     0.4524273196
Bq        -1.1586909849     0.9902045877     0.9367456600
Bq        -1.1356390970     0.8429086834     0.3555636515
Bq        -1.1625329663     1.0147539051     1.0336093281
Bq        -1.1317971156     0.8183593660     0.2586999834
Bq        -1.1663749476     1.0393032224     1.1304729962
Bq        -1.1279551343     0.7938100487     0.1618363153
Bq        -1.1471650409     0.9165566355     0.6461546557
Bq        -1.1500340681     1.0380457849     0.7184882944
Bq        -1.1423501054     0.9889471501     0.5247609582
Bq        -1.1538760494     1.0625951022     0.8153519625
Bq        -1.1385081241     0.9643978327     0.4278972901
Bq        -1.1577180307     1.0871444196     0.9122156306
Bq        -1.1346661427     0.9398485154     0.3310336220
Bq        -1.1615600120     1.1116937370     1.0090792987
Bq        -1.1308241614     0.9152991980     0.2341699540
Bq        -1.1654019934     1.1362430544     1.1059429668
Bq        -1.1269821801     0.8907498806     0.1373062859
Bq        -1.1461920867     1.0134964675     0.6216246263
Bq        -1.1490611138     1.1349856168     0.6939582650
Bq        -1.1413771512     1.0858869821     0.5002309288
Bq        -1.1529030952     1.1595349342     0.7908219331
Bq        -1.1375351698     1.0613376647     0.4033672607
Bq        -1.1567450765     1.1840842516     0.8876856012
Bq        -1.1336931885     1.0367883473     0.3065035926
Bq        -1.1605870578     1.2086335689     0.9845492692
Bq        -1.1298512072     1.0122390299     0.2096399245
Bq        -1.1644290391     1.2331828863     1.0814129373
Bq        -1.1260092259     0.9876897125     0.1127762564
Bq        -1.1452191325     1.1104362994     0.5970945969
Bq        -1.1480881596     1.2319254487     0.6694282355
Bq        -1.1404041969     1.1828268140     0.4757008994
Bq        -1.1519301409     1.2564747661     0.7662919036
Bq        -1.1365622156     1.1582774966     0.3788372313
Bq        -1.1557721223     1.2810240835     0.8631555717
Bq        -1.1327202343     1.1337281792     0.2819735632
Bq        -1.1596141036     1.3055734009     0.9600192398
Bq        -1.1288782530     1.1091788619     0.1851098951
Bq        -1.1634560849     1.3301227182     1.0568829079
Bq        -1.1250362716     1.0846295445     0.0882462270
Bq        -1.1442461783     1.2073761314     0.5725645675
Bq        -1.1471152054     1.3288652807     0.6448982061
Bq        -1.1394312427     1.2797666459     0.4511708699
Bq        -1.1509571867     1.3534145981     0.7417618742
Bq        -1.1355892614     1.2552173286     0.3543072019
Bq        -1.1547991680     1.3779639154     0.8386255423
Bq        -1.1317472801     1.2306680112     0.2574435338
Bq        -1.1586411494     1.4025132328     0.9354892104
Bq        -1.1279052987     1.2061186938     0.1605798657
Bq        -1.1624831307     1.4270625502     1.0323528785
Bq        -1.1240633174     1.1815693764     0.0637161976
Bq        -1.1432732241     1.3043159633     0.5480345380
Bq        -1.1461422512     1.4258051126     0.6203681767
Bq        -1.1384582885     1.3767064779     0.4266408405
Bq        -1.1499842325     1.4503544300     0.7172318448
Bq        -1.1346163072     1.3521571605     0.3297771724
Bq        -1.1538262138     1.4749037474     0.8140955129
Bq        -1.1307743258     1.3276078431     0.2329135043
Bq        -1.1576681951     1.4994530647     0.9109591810
Bq        -1.1269323445     1.3030585257     0.1360498362
Bq        -1.1615101765     1.5240023821     1.0078228491
Bq        -1.1230903632     1.2785092084     0.0391861682
Bq        -1.1423002698     1.4012557952     0.5235045086
Bq        -1.1451692969     1.5227449446     0.5958381473
Bq        -1.1374853343     1.4736463098     0.4021108111
Bq        -1.1490112783     1.5472942619     0.6927018154
Bq        -1.1336433529     1.4490969924     0.3052471430
Bq        -1.1528532596     1.5718435793     0.7895654834
Bq        -1.1298013716     1.4245476751     0.2083834749
Bq        -1.1566952409     1.5963928967     0.8864291515
Bq        -1.1259593903     1.3999983577     0.1115198068
Bq        -1.1605372222     1.6209422141     0.9832928196
Bq        -1.1221174090     1.3754490403     0.0146561387
Bq        -1.1413273156     1.4981956272     0.4989744792
Bq        -1.1441963427     1.6196847765     0.5713081178
Bq        -1.1365123800     1.5705861417     0.3775807817
Bq        -1.1480383240     1.6442340939     0.6681717859
Bq        -1.1326703987     1.5460368244     0.2807171136
Bq        -1.1518803054     1.6687834113     0.7650354540
Bq        -1.1288284174     1.5214875070     0.1838534455
Bq        -1.1557222867     1.6933327286     0.8618991221
Bq        -1.1249864361     1.4969381896     0.0869897774
Bq        -1.1595642680     1.7178820460     0.9587627902
Bq        -1.1211444547     1.4723888722    -0.0098738907
Bq        -1.1403543614     1.5951354591     0.4744444498
Bq        -1.1432233885     1.7166246084     0.5467780884
Bq        -1.1355394258     1.6675259737     0.3530507522
Bq        -1.1470653698     1.7411739258     0.6436417565
Bq        -1.1316974445     1.6429766563     0.2561870841
Bq        -1.1509073511     1.7657232432     0.7405054246
Bq        -1.1278554632     1.6184273389     0.1593234161
Bq        -1.1547493325     1.7902725606     0.8373690927
Bq        -1.1240134818     1.5938780216     0.0624597480
Bq        -1.1585913138     1.8148218779     0.9342327608
Bq        -1.1201715005     1.5693287042    -0.0344039201
Bq        -1.1393814072     1.6920752911     0.4499144203
Bq        -1.1422504343     1.8135644404     0.5222480590
Bq        -1.1345664716     1.7644658056     0.3285207228
Bq        -1.1460924156     1.8381137578     0.6191117271
Bq        -1.1307244903     1.7399164882     0.2316570547
Bq        -1.1499343969     1.8626630751     0.7159753952
Bq        -1.1268825089     1.7153671709     0.1347933866
Bq        -1.1537763782     1.8872123925     0.8128390633
Bq        -1.1230405276     1.6908178535     0.0379297185
Bq        -1.1576183596     1.9117617099     0.9097027313
Bq        -1.1191985463     1.6662685361    -0.0589339496
Bq        -1.1384084529     1.7890151230     0.4253843909
Bq        -1.1412774800     1.9105042723     0.4977180296
Bq        -1.1335935174     1.8614056376     0.3039906934
Bq        -1.1451194614     1.9350535897     0.5945816976
Bq        -1.1297515360     1.8368563202     0.2071270253
Bq        -1.1489614427     1.9596029071     0.6914453657
Bq        -1.1259095547     1.8123070028     0.1102633572
Bq        -1.1528034240     1.9841522244     0.7883090338
Bq        -1.1220675734     1.7877576854     0.0133996891
Bq        -1.1566454054     2.0087015418     0.8851727019
Bq        -1.1182255921     1.7632083681    -0.0834639790
Bq        -1.1374354987     1.8859549549     0.4008543615
Bq        -1.1403045258     2.0074441043     0.4731880001
Bq        -1.1326205632     1.9583454695     0.2794606640
Bq        -1.1441465071     2.0319934216     0.5700516682
Bq        -1.1287785818     1.9337961521     0.1825969959
Bq        -1.1479884885     2.0565427390     0.6669153363
Bq        -1.1249366005     1.9092468348     0.0857333278
Bq        -1.1518304698     2.0810920564     0.7637790044
Bq        -1.1210946192     1.8846975174    -0.0111303403
Bq        -1.1556724511     2.1056413738     0.8606426725
Bq        -1.1172526378     1.8601482000    -0.1079940084
Bq        -1.1364625445     1.9828947869     0.3763243320
Bq        -1.1393315716     2.1043839362     0.4486579707
Bq        -1.1316476089     2.0552853014     0.2549306345
Bq        -1.1431735529     2.1289332536     0.5455216388
Bq        -1.1278056276     2.0307359841     0.1580669664
Bq        -1.1470155342     2.1534825709     0.6423853069

1
2
3
4
5
6
7
8
9
10
11
12
13
14
15
16
17
18
19
20
21
22
23
24
25
26
27
28
29
30
31
32
33
34
35
36
37
38
39
40
41
42
43
44
45
46
47
48
49
50
51
52
53
54
55
56
57
58
59
60
61
62
63
64
65
66
67
68
69
70
71
72
73
74
75
76
77
78
79
80
81
82
83
84
85
86
87
88
89
90
91
92
93
94
95
96
97
98
99
100
101
102
103
104
105
106
107
108
109
110
111
112
113
114
115
116
117
118
119
120
121
122
123
124
125
126
127
128
129
130
131
132
133
134
135
136
137
138
139
140
141
142
143
144
145
146
147
148
149
150
151
152
153
154
155
156
157
158
159
160
161
162
163
164
165
166
167
168
169
170
171
172
173
174
175
176
177
178
179
180
181
182
183
184
185
186
187
188
189
190
191
192
193
194
195
196
197
198
199
200
201
202
203
204
205
206
207
208
209
210
211
212
213
214
215
216
217
218
219
220
221
222
223
224
225
226
227
228
229
230
231
232
233
234
235
236

