%nproc=8
%mem=1000MB
# rb3lyp/6-311+g** NMR geom=connectivity

Title

0 1
C    -4.0500558   -0.5771862    0.8136712
H    -5.0263804   -1.0082727    1.0024760
C    -3.9381552    0.6617804    0.2400876
H    -4.8252424    1.2338890   -0.0111295
C    -2.6768410    1.2433246    0.0057578
C    -1.4974121    0.5051527    0.2848253
C    -1.6508332   -0.7338728    0.9404026
H    -0.7713646   -1.2730967    1.2633753
C    -2.8898548   -1.2624035    1.1994307
H    -2.9683706   -2.2124563    1.7152676
C    -2.5773185    2.5963696   -0.4192930
H    -3.4870728    3.1412239   -0.6474055
C    -1.3741895    3.2147896   -0.4364030
H    -1.2997315    4.2742019   -0.6578144
C    -0.1719488    2.4994090   -0.1734588
C    -0.2043917    1.1018437    0.0192689
C     1.0513491    3.2042560   -0.0676222
H     1.0427344    4.2819499   -0.1896997
C     2.1942091    2.5487446    0.2579577
H     3.1168527    3.0912848    0.4334727
C     2.2216473    1.1336562    0.2934990
C     1.0486931    0.3945528    0.0302412
C     3.4483363    0.4614633    0.5573939
H     4.3095794    1.0606054    0.8334846
C     3.5427346   -0.8855926    0.4749463
H     4.4731467   -1.3939704    0.7038822
C     2.4490052   -1.6474447   -0.0196319
C     1.2150704   -1.0057258   -0.3013573
C     0.2531113   -1.7434440   -1.0216591
H    -0.6541356   -1.2535051   -1.3462847
C     0.4494193   -3.0628597   -1.3413779
H    -0.3083162   -3.5944309   -1.9054060
C     1.6251726   -3.7207967   -0.9552541
H     1.7670048   -4.7687404   -1.1927019
C     2.6109872   -3.0144177   -0.3183050
H     3.5525612   -3.4902813   -0.0646367
Bq         3.1112715626    -0.4589108116     0.9847770453
Bq         3.0975077435    -0.3541181111     1.0787400551
Bq         3.1264596496    -0.3639450813     0.8810908260
Bq         3.0830317905    -0.3492046261     1.1775646697
Bq         3.1409356027    -0.3688585664     0.7822662114
Bq         3.0685558374    -0.3442911410     1.2763892843
Bq         3.1554115557    -0.3737720515     0.6834415968
Bq         3.0540798844    -0.3393776559     1.3752138989
Bq         3.1698875087    -0.3786855365     0.5846169822
Bq         3.0396039313    -0.3344641708     1.4740385135
Bq         3.1843634618    -0.3835990216     0.4857923676
Bq         3.1119836966    -0.3590315962     0.9799154406
Bq         3.0982198775    -0.2542388958     1.0738784504
Bq         3.1271717836    -0.2640658659     0.8762292212
Bq         3.0837439244    -0.2493254107     1.1727030650
Bq         3.1416477366    -0.2689793510     0.7774046066
Bq         3.0692679714    -0.2444119256     1.2715276795
Bq         3.1561236896    -0.2738928361     0.6785799920
Bq         3.0547920183    -0.2394984405     1.3703522941
Bq         3.1705996427    -0.2788063212     0.5797553775
Bq         3.0403160653    -0.2345849554     1.4691769087
Bq         3.1850755957    -0.2837198063     0.4809307629
Bq         3.1126958305    -0.2591523808     0.9750538358
Bq         3.0989320114    -0.1543596804     1.0690168456
Bq         3.1278839175    -0.1641866505     0.8713676164
Bq         3.0844560584    -0.1494461953     1.1678414602
Bq         3.1423598705    -0.1691001356     0.7725430019
Bq         3.0699801053    -0.1445327102     1.2666660748
Bq         3.1568358236    -0.1740136207     0.6737183873
Bq         3.0555041523    -0.1396192251     1.3654906894
Bq         3.1713117766    -0.1789271058     0.5748937727
Bq         3.0410281992    -0.1347057400     1.4643153039
Bq         3.1857877297    -0.1838405909     0.4760691581
Bq         3.1134079645    -0.1592731655     0.9701922310
Bq         3.0996441453    -0.0544804650     1.0641552408
Bq         3.1285960514    -0.0643074352     0.8665060117
Bq         3.0851681923    -0.0495669799     1.1629798554
Bq         3.1430720045    -0.0692209203     0.7676813971
Bq         3.0706922393    -0.0446534948     1.2618044700
Bq         3.1575479575    -0.0741344053     0.6688567825
Bq         3.0562162862    -0.0397400098     1.3606290846
Bq         3.1720239106    -0.0790478904     0.5700321679
Bq         3.0417403332    -0.0348265247     1.4594536992
Bq         3.1864998636    -0.0839613755     0.4712075533
Bq         3.1141200984    -0.0593939501     0.9653306263
Bq         3.1003562793     0.0453987504     1.0592936361
Bq         3.1293081854     0.0355717802     0.8616444069
Bq         3.0858803262     0.0503122355     1.1581182507
Bq         3.1437841384     0.0306582951     0.7628197923
Bq         3.0714043732     0.0552257205     1.2569428652
Bq         3.1582600915     0.0257448100     0.6639951777
Bq         3.0569284202     0.0601392056     1.3557674798
Bq         3.1727360445     0.0208313250     0.5651705632
Bq         3.0424524671     0.0650526907     1.4545920944
Bq         3.1872119976     0.0159178399     0.4663459486
Bq         3.1148322323     0.0404852653     0.9604690215
Bq         3.1010684132     0.1452779658     1.0544320313
Bq         3.1300203193     0.1354509956     0.8567828021
Bq         3.0865924602     0.1501914508     1.1532566459
Bq         3.1444962724     0.1305375105     0.7579581876
Bq         3.0721165071     0.1551049359     1.2520812605
Bq         3.1589722254     0.1256240254     0.6591335730
Bq         3.0576405541     0.1600184210     1.3509058751
Bq         3.1734481785     0.1207105403     0.5603089584
Bq         3.0431646011     0.1649319061     1.4497304897
Bq         3.1879241315     0.1157970553     0.4614843438
Bq         3.1155443663     0.1403644807     0.9556074167
Bq         3.1017805472     0.2451571811     1.0495704265
Bq         3.1307324533     0.2353302110     0.8519211974
Bq         3.0873045941     0.2500706662     1.1483950411
Bq         3.1452084063     0.2304167259     0.7530965828
Bq         3.0728286411     0.2549841513     1.2472196557
Bq         3.1596843594     0.2255032408     0.6542719682
Bq         3.0583526880     0.2598976364     1.3460442703
Bq         3.1741603124     0.2205897557     0.5554473536
Bq         3.0438767350     0.2648111215     1.4448688849
Bq         3.1886362654     0.2156762706     0.4566227390
Bq         3.1162565002     0.2402436960     0.9507458120
Bq         3.1024926811     0.3450363965     1.0447088218
Bq         3.1314445872     0.3352094263     0.8470595926
Bq         3.0880167281     0.3499498816     1.1435334364
Bq         3.1459205402     0.3302959413     0.7482349780
Bq         3.0735407750     0.3548633667     1.2423580509
Bq         3.1603964933     0.3253824562     0.6494103634
Bq         3.0590648220     0.3597768518     1.3411826655
Bq         3.1748724463     0.3204689711     0.5505857489
Bq         3.0445888689     0.3646903368     1.4400072801
Bq         3.1893483994     0.3155554860     0.4517611343
Bq         3.1169686342     0.3401229114     0.9458842072
Bq         3.1032048151     0.4449156119     1.0398472170
Bq         3.1321567211     0.4350886417     0.8421979878
Bq         3.0887288620     0.4498290970     1.1386718316
Bq         3.1466326742     0.4301751566     0.7433733733
Bq         3.0742529090     0.4547425820     1.2374964462
Bq         3.1611086272     0.4252616716     0.6445487587
Bq         3.0597769559     0.4596560671     1.3363210608
Bq         3.1755845803     0.4203481865     0.5457241441
Bq         3.0453010029     0.4645695522     1.4351456754
Bq         3.1900605333     0.4154347014     0.4468995295
Bq         3.1176807681     0.4400021268     0.9410226024
Bq         3.1039169490     0.5447948273     1.0349856122
Bq         3.1328688551     0.5349678571     0.8373363831
Bq         3.0894409960     0.5497083123     1.1338102268
Bq         3.1473448081     0.5300543720     0.7385117685
Bq         3.0749650429     0.5546217974     1.2326348414
Bq         3.1618207612     0.5251408869     0.6396871539
Bq         3.0604890899     0.5595352825     1.3314594560
Bq         3.1762967142     0.5202274018     0.5408625393
Bq         3.0460131368     0.5644487676     1.4302840706
Bq         3.1907726673     0.5153139168     0.4420379247
Bq         3.1183929020     0.5398813422     0.9361609977
Bq         3.1046290829     0.6446740426     1.0301240075
Bq         3.1335809890     0.6348470725     0.8324747783
Bq         3.0901531299     0.6495875277     1.1289486221
Bq         3.1480569421     0.6299335874     0.7336501637
Bq         3.0756771769     0.6545010128     1.2277732366
Bq         3.1625328951     0.6250201023     0.6348255491
Bq         3.0612012238     0.6594144979     1.3265978512
Bq         3.1770088482     0.6201066172     0.5360009346
Bq         3.0467252708     0.6643279830     1.4254224658
Bq         3.1914848012     0.6151931321     0.4371763200
Bq         3.1191050360     0.6397605576     0.9312993929
Bq         3.1053412169     0.7445532580     1.0252624027
Bq         3.1342931230     0.7347262878     0.8276131735
Bq         3.0908652638     0.7494667431     1.1240870173
Bq         3.1487690760     0.7298128028     0.7287885590
Bq         3.0763893108     0.7543802282     1.2229116319
Bq         3.1632450291     0.7248993177     0.6299639444
Bq         3.0619133578     0.7592937133     1.3217362465
Bq         3.1777209821     0.7199858326     0.5311393298
Bq         3.0474374047     0.7642071983     1.4205608611
Bq         3.1921969351     0.7150723475     0.4323147152
Bq         3.1198171699     0.7396397729     0.9264377881
Bq         3.1060533508     0.8444324734     1.0204007979
Bq         3.1350052569     0.8346055032     0.8227515688
Bq         3.0915773978     0.8493459585     1.1192254125
Bq         3.1494812100     0.8296920181     0.7239269542
Bq         3.0771014447     0.8542594436     1.2180500271
Bq         3.1639571630     0.8247785331     0.6251023396
Bq         3.0626254917     0.8591729286     1.3168746417
Bq         3.1784331160     0.8198650480     0.5262777250
Bq         3.0481495386     0.8640864137     1.4156992563
Bq         3.1929090691     0.8149515629     0.4274531104
Bq         3.1205293039     0.8395189883     0.9215761834
Bq         3.1067654848     0.9443116888     1.0155391932
Bq         3.1357173909     0.9344847186     0.8178899640
Bq         3.0922895317     0.9492251739     1.1143638078
Bq         3.1501933439     0.9295712335     0.7190653494
Bq         3.0778135787     0.9541386589     1.2131884223
Bq         3.1646692969     0.9246577484     0.6202407348
Bq         3.0633376256     0.9590521440     1.3120130369
Bq         3.1791452500     0.9197442634     0.5214161203
Bq         3.0488616726     0.9639656291     1.4108376515
Bq         3.1936212030     0.9148307783     0.4225915057
Bq         3.1212414378     0.9393982037     0.9167145786
Bq         3.1074776187     1.0441909041     1.0106775884
Bq         3.1364295248     1.0343639340     0.8130283592
Bq         3.0930016657     1.0491043892     1.1095022030
Bq         3.1509054778     1.0294504489     0.7142037447
Bq         3.0785257126     1.0540178743     1.2083268176
Bq         3.1653814309     1.0245369638     0.6153791301
Bq         3.0640497596     1.0589313594     1.3071514322
Bq         3.1798573839     1.0196234787     0.5165545155
Bq         3.0495738065     1.0638448445     1.4059760468
Bq         3.1943333370     1.0147099936     0.4177299009
Bq         3.1219535718     1.0392774191     0.9118529738
Bq         3.1081897527     1.1440701195     1.0058159836
Bq         3.1371416587     1.1342431494     0.8081667545
Bq         3.0937137996     1.1489836046     1.1046405982
Bq         3.1516176118     1.1293296643     0.7093421399
Bq         3.0792378466     1.1538970897     1.2034652128
Bq         3.1660935648     1.1244161792     0.6105175253
Bq         3.0647618935     1.1588105748     1.3022898274
Bq         3.1805695179     1.1195026941     0.5116929107
Bq         3.0502859405     1.1637240599     1.4011144420
Bq         3.1950454709     1.1145892090     0.4128682961
Bq         3.1226657057     1.1391566344     0.9069913691
Bq         3.1089018866     1.2439493349     1.0009543789
Bq         3.1378537927     1.2341223647     0.8033051497
Bq         3.0944259335     1.2488628200     1.0997789935
Bq         3.1523297457     1.2292088797     0.7044805351
Bq         3.0799499805     1.2537763051     1.1986036080
Bq         3.1668056988     1.2242953946     0.6056559205
Bq         3.0654740275     1.2586897901     1.2974282226
Bq         3.1812816518     1.2193819095     0.5068313060
Bq         3.0509980744     1.2636032752     1.3962528372
Bq         3.1957576049     1.2144684244     0.4080066914
Bq         3.1233778396     1.2390358498     0.9021297643
Bq         3.1096140205     1.3438285503     0.9960927741
Bq         3.1385659266     1.3340015801     0.7984435449
Bq         3.0951380675     1.3487420354     1.0949173887
Bq         3.1530418797     1.3290880950     0.6996189304
Bq         3.0806621144     1.3536555204     1.1937420033
Bq         3.1675178327     1.3241746099     0.6007943158
Bq         3.0661861614     1.3585690055     1.2925666179
Bq         3.1819937858     1.3192611249     0.5019697012
Bq         3.0517102084     1.3634824906     1.3913912325
Bq         3.1964697388     1.3143476398     0.4031450866
Bq         3.1240899736     1.3389150652     0.8972681595
Bq         3.1103261545     1.4437077657     0.9912311693

1
2
3
4
5
6
7
8
9
10
11
12
13
14
15
16
17
18
19
20
21
22
23
24
25
26
27
28
29
30
31
32
33
34
35
36
37
38
39
40
41
42
43
44
45
46
47
48
49
50
51
52
53
54
55
56
57
58
59
60
61
62
63
64
65
66
67
68
69
70
71
72
73
74
75
76
77
78
79
80
81
82
83
84
85
86
87
88
89
90
91
92
93
94
95
96
97
98
99
100
101
102
103
104
105
106
107
108
109
110
111
112
113
114
115
116
117
118
119
120
121
122
123
124
125
126
127
128
129
130
131
132
133
134
135
136
137
138
139
140
141
142
143
144
145
146
147
148
149
150
151
152
153
154
155
156
157
158
159
160
161
162
163
164
165
166
167
168
169
170
171
172
173
174
175
176
177
178
179
180
181
182
183
184
185
186
187
188
189
190
191
192
193
194
195
196
197
198
199
200
201
202
203
204
205
206
207
208
209
210
211
212
213
214
215
216
217
218
219
220
221
222
223
224
225
226
227
228
229
230
231
232
233
234
235
236

