%nproc=8
%mem=1000MB
# rb3lyp/6-311+g** NMR geom=connectivity

Title

0 1
C    -4.0500558   -0.5771862    0.8136712
H    -5.0263804   -1.0082727    1.0024760
C    -3.9381552    0.6617804    0.2400876
H    -4.8252424    1.2338890   -0.0111295
C    -2.6768410    1.2433246    0.0057578
C    -1.4974121    0.5051527    0.2848253
C    -1.6508332   -0.7338728    0.9404026
H    -0.7713646   -1.2730967    1.2633753
C    -2.8898548   -1.2624035    1.1994307
H    -2.9683706   -2.2124563    1.7152676
C    -2.5773185    2.5963696   -0.4192930
H    -3.4870728    3.1412239   -0.6474055
C    -1.3741895    3.2147896   -0.4364030
H    -1.2997315    4.2742019   -0.6578144
C    -0.1719488    2.4994090   -0.1734588
C    -0.2043917    1.1018437    0.0192689
C     1.0513491    3.2042560   -0.0676222
H     1.0427344    4.2819499   -0.1896997
C     2.1942091    2.5487446    0.2579577
H     3.1168527    3.0912848    0.4334727
C     2.2216473    1.1336562    0.2934990
C     1.0486931    0.3945528    0.0302412
C     3.4483363    0.4614633    0.5573939
H     4.3095794    1.0606054    0.8334846
C     3.5427346   -0.8855926    0.4749463
H     4.4731467   -1.3939704    0.7038822
C     2.4490052   -1.6474447   -0.0196319
C     1.2150704   -1.0057258   -0.3013573
C     0.2531113   -1.7434440   -1.0216591
H    -0.6541356   -1.2535051   -1.3462847
C     0.4494193   -3.0628597   -1.3413779
H    -0.3083162   -3.5944309   -1.9054060
C     1.6251726   -3.7207967   -0.9552541
H     1.7670048   -4.7687404   -1.1927019
C     2.6109872   -3.0144177   -0.3183050
H     3.5525612   -3.4902813   -0.0646367
Bq        -2.0885156564    -1.7878318951     1.7667296866
Bq        -2.0902856343    -1.5704183100     2.2169831710
Bq        -2.0881616608    -1.8313146121     1.6766789897
Bq        -2.0906396299    -1.5269355930     2.3070338679
Bq        -2.0878076653    -1.8747973291     1.5866282928
Bq        -2.0909936254    -1.4834528760     2.3970845648
Bq        -2.0874536697    -1.9182800461     1.4965775959
Bq        -2.0892236476    -1.7008664611     1.9468310804
Bq        -2.0894067109    -1.5673323514     1.9933993962
Bq        -2.0886987197    -1.6542977854     1.8132980024
Bq        -2.0897607064    -1.5238496344     2.0834500931
Bq        -2.0883447241    -1.6977805024     1.7232473056
Bq        -2.0901147020    -1.4803669174     2.1735007900
Bq        -2.0879907286    -1.7412632194     1.6331966087
Bq        -2.0904686976    -1.4368842004     2.2635514869
Bq        -2.0876367330    -1.7847459364     1.5431459118
Bq        -2.0908226932    -1.3934014834     2.3536021837
Bq        -2.0872827374    -1.8282286534     1.4530952149
Bq        -2.0890527153    -1.6108150684     1.9033486993
Bq        -2.0892357786    -1.4772809587     1.9499170152
Bq        -2.0885277874    -1.5642463927     1.7698156214
Bq        -2.0895897742    -1.4337982417     2.0399677121
Bq        -2.0881737919    -1.6077291097     1.6797649245
Bq        -2.0899437697    -1.3903155247     2.1300184089
Bq        -2.0878197963    -1.6512118267     1.5897142276
Bq        -2.0902977653    -1.3468328077     2.2200691058
Bq        -2.0874658007    -1.6946945437     1.4996635308
Bq        -2.0906517609    -1.3033500907     2.3101198027
Bq        -2.0871118051    -1.7381772607     1.4096128339
Bq        -2.0888817830    -1.5207636757     1.8598663183
Bq        -2.0890648463    -1.3872295660     1.9064346341
Bq        -2.0883568552    -1.4741950001     1.7263332404
Bq        -2.0894188419    -1.3437468490     1.9964853310
Bq        -2.0880028596    -1.5176777171     1.6362825435
Bq        -2.0897728375    -1.3002641320     2.0865360279
Bq        -2.0876488640    -1.5611604341     1.5462318466
Bq        -2.0901268330    -1.2567814150     2.1765867248
Bq        -2.0872948684    -1.6046431511     1.4561811497
Bq        -2.0904808286    -1.2132986980     2.2666374217
Bq        -2.0869408729    -1.6481258681     1.3661304528
Bq        -2.0887108507    -1.4307122830     1.8163839373
Bq        -2.0888939140    -1.2971781734     1.8629522531
Bq        -2.0881859229    -1.3841436074     1.6828508593
Bq        -2.0892479096    -1.2536954564     1.9530029500
Bq        -2.0878319273    -1.4276263244     1.5928001625
Bq        -2.0896019052    -1.2102127394     2.0430536469
Bq        -2.0874779317    -1.4711090414     1.5027494656
Bq        -2.0899559008    -1.1667300224     2.1331043438
Bq        -2.0871239362    -1.5145917584     1.4126987687
Bq        -2.0903098963    -1.1232473054     2.2231550406
Bq        -2.0867699406    -1.5580744754     1.3226480718
Bq        -2.0885399185    -1.3406608904     1.7729015562
Bq        -2.0887229818    -1.2071267807     1.8194698721
Bq        -2.0880149906    -1.2940922147     1.6393684783
Bq        -2.0890769773    -1.1636440637     1.9095205690
Bq        -2.0876609950    -1.3375749317     1.5493177814
Bq        -2.0894309729    -1.1201613467     1.9995712658
Bq        -2.0873069995    -1.3810576487     1.4592670845
Bq        -2.0897849685    -1.0766786297     2.0896219627
Bq        -2.0869530039    -1.4245403657     1.3692163877
Bq        -2.0901389641    -1.0331959127     2.1796726596
Bq        -2.0865990083    -1.4680230827     1.2791656908
Bq        -2.0883689862    -1.2506094977     1.7294191752
Bq        -2.0885520495    -1.1170753880     1.7759874910
Bq        -2.0878440583    -1.2040408220     1.5958860973
Bq        -2.0889060451    -1.0735926710     1.8660381879
Bq        -2.0874900628    -1.2475235390     1.5058354004
Bq        -2.0892600406    -1.0301099540     1.9560888848
Bq        -2.0871360672    -1.2910062560     1.4157847035
Bq        -2.0896140362    -0.9866272370     2.0461395817
Bq        -2.0867820716    -1.3344889731     1.3257340066
Bq        -2.0899680318    -0.9431445200     2.1361902786
Bq        -2.0864280760    -1.3779716901     1.2356833097
Bq        -2.0881980539    -1.1605581050     1.6859367942
Bq        -2.0883811172    -1.0270239954     1.7325051100
Bq        -2.0876731261    -1.1139894294     1.5524037162
Bq        -2.0887351128    -0.9835412784     1.8225558069
Bq        -2.0873191305    -1.1574721464     1.4623530194
Bq        -2.0890891084    -0.9400585614     1.9126065038
Bq        -2.0869651349    -1.2009548634     1.3723023225
Bq        -2.0894431039    -0.8965758443     2.0026572007
Bq        -2.0866111393    -1.2444375804     1.2822516256
Bq        -2.0897970995    -0.8530931273     2.0927078975
Bq        -2.0862571438    -1.2879202974     1.1922009287
Bq        -2.0880271216    -1.0705067124     1.6424544131
Bq        -2.0882101849    -0.9369726027     1.6890227290
Bq        -2.0875021938    -1.0239380367     1.5089213352
Bq        -2.0885641805    -0.8934898857     1.7790734259
Bq        -2.0871481982    -1.0674207537     1.4188706383
Bq        -2.0889181761    -0.8500071687     1.8691241227
Bq        -2.0867942026    -1.1109034707     1.3288199414
Bq        -2.0892721717    -0.8065244517     1.9591748196
Bq        -2.0864402071    -1.1543861877     1.2387692446
Bq        -2.0896261672    -0.7630417347     2.0492255165
Bq        -2.0860862115    -1.1978689047     1.1487185477
Bq        -2.0878561894    -0.9804553197     1.5989720321
Bq        -2.0880392527    -0.8469212100     1.6455403479
Bq        -2.0873312615    -0.9338866440     1.4654389542
Bq        -2.0883932482    -0.8034384930     1.7355910448
Bq        -2.0869772659    -0.9773693610     1.3753882573
Bq        -2.0887472438    -0.7599557760     1.8256417417
Bq        -2.0866232704    -1.0208520780     1.2853375604
Bq        -2.0891012394    -0.7164730590     1.9156924386
Bq        -2.0862692748    -1.0643347950     1.1952868635
Bq        -2.0894552350    -0.6729903420     2.0057431355
Bq        -2.0859152792    -1.1078175120     1.1052361667
Bq        -2.0876852571    -0.8904039270     1.5554896511
Bq        -2.0878683204    -0.7568698173     1.6020579669
Bq        -2.0871603292    -0.8438352514     1.4219565731
Bq        -2.0882223160    -0.7133871003     1.6921086638
Bq        -2.0868063337    -0.8873179684     1.3319058763
Bq        -2.0885763115    -0.6699043833     1.7821593607
Bq        -2.0864523381    -0.9308006854     1.2418551794
Bq        -2.0889303071    -0.6264216663     1.8722100576
Bq        -2.0860983425    -0.9742834024     1.1518044825
Bq        -2.0892843027    -0.5829389493     1.9622607544
Bq        -2.0857443470    -1.0177661194     1.0617537856
Bq        -2.0875143248    -0.8003525344     1.5120072700
Bq        -2.0876973881    -0.6668184247     1.5585755859
Bq        -2.0869893970    -0.7537838587     1.3784741921
Bq        -2.0880513837    -0.6233357077     1.6486262828
Bq        -2.0866354014    -0.7972665757     1.2884234952
Bq        -2.0884053793    -0.5798529907     1.7386769796
Bq        -2.0862814058    -0.8407492927     1.1983727984
Bq        -2.0887593748    -0.5363702737     1.8287276765
Bq        -2.0859274103    -0.8842320097     1.1083221015
Bq        -2.0891133704    -0.4928875567     1.9187783734
Bq        -2.0855734147    -0.9277147267     1.0182714046
Bq        -2.0873433925    -0.7103011417     1.4685248890
Bq        -2.0875264558    -0.5767670320     1.5150932048
Bq        -2.0868184647    -0.6637324660     1.3349918111
Bq        -2.0878804514    -0.5332843150     1.6051439017
Bq        -2.0864644691    -0.7072151830     1.2449411142
Bq        -2.0882344470    -0.4898015980     1.6951945986
Bq        -2.0861104736    -0.7506979000     1.1548904173
Bq        -2.0885884426    -0.4463188810     1.7852452955
Bq        -2.0857564780    -0.7941806170     1.0648397204
Bq        -2.0889424381    -0.4028361640     1.8752959924
Bq        -2.0854024824    -0.8376633340     0.9747890236
Bq        -2.0871724603    -0.6202497490     1.4250425080
Bq        -2.0873555236    -0.4867156393     1.4716108238
Bq        -2.0866475324    -0.5736810733     1.2915094301
Bq        -2.0877095191    -0.4432329223     1.5616615207
Bq        -2.0862935369    -0.6171637904     1.2014587332
Bq        -2.0880635147    -0.3997502053     1.6517122176
Bq        -2.0859395413    -0.6606465074     1.1114080363
Bq        -2.0884175103    -0.3562674883     1.7417629145
Bq        -2.0855855457    -0.7041292244     1.0213573394
Bq        -2.0887715059    -0.3127847713     1.8318136113
Bq        -2.0852315501    -0.7476119414     0.9313066425
Bq        -2.0870015280    -0.5301983563     1.3815601269
Bq        -2.0871845913    -0.3966642467     1.4281284428
Bq        -2.0864766002    -0.4836296807     1.2480270490
Bq        -2.0875385869    -0.3531815297     1.5181791397
Bq        -2.0861226046    -0.5271123977     1.1579763521
Bq        -2.0878925824    -0.3096988127     1.6082298366
Bq        -2.0857686090    -0.5705951147     1.0679256553
Bq        -2.0882465780    -0.2662160957     1.6982805334
Bq        -2.0854146134    -0.6140778317     0.9778749584
Bq        -2.0886005736    -0.2227333786     1.7883312303
Bq        -2.0850606179    -0.6575605487     0.8878242615
Bq        -2.0868305957    -0.4401469637     1.3380777459
Bq        -2.0870136590    -0.3066128540     1.3846460618
Bq        -2.0863056679    -0.3935782880     1.2045446680
Bq        -2.0873676546    -0.2631301370     1.4746967586
Bq        -2.0859516723    -0.4370610050     1.1144939711
Bq        -2.0877216502    -0.2196474200     1.5647474555
Bq        -2.0855976767    -0.4805437220     1.0244432742
Bq        -2.0880756457    -0.1761647030     1.6547981524
Bq        -2.0852436812    -0.5240264390     0.9343925773
Bq        -2.0884296413    -0.1326819860     1.7448488493
Bq        -2.0848896856    -0.5675091560     0.8443418805
Bq        -2.0866596635    -0.3500955710     1.2945953649
Bq        -2.0868427268    -0.2165614613     1.3411636807
Bq        -2.0861347356    -0.3035268953     1.1610622870
Bq        -2.0871967223    -0.1730787443     1.4312143776
Bq        -2.0857807400    -0.3470096123     1.0710115901
Bq        -2.0875507179    -0.1295960273     1.5212650745
Bq        -2.0854267445    -0.3904923293     0.9809608932
Bq        -2.0879047135    -0.0861133103     1.6113157714
Bq        -2.0850727489    -0.4339750463     0.8909101963
Bq        -2.0882587090    -0.0426305933     1.7013664683
Bq        -2.0847187533    -0.4774577634     0.8008594994
Bq        -2.0864887312    -0.2600441783     1.2511129838
Bq        -2.0866717945    -0.1265100687     1.2976812997
Bq        -2.0859638033    -0.2134755027     1.1175799059
Bq        -2.0870257901    -0.0830273517     1.3877319966
Bq        -2.0856098078    -0.2569582197     1.0275292090
Bq        -2.0873797856    -0.0395446346     1.4777826935
Bq        -2.0852558122    -0.3004409367     0.9374785122
Bq        -2.0877337812     0.0039380824     1.5678333903
Bq        -2.0849018166    -0.3439236537     0.8474278153
Bq        -2.0880877768     0.0474207994     1.6578840872
Bq        -2.0845478210    -0.3874063707     0.7573771184
Bq        -2.0863177989    -0.1699927857     1.2076306028
Bq        -2.0865008622    -0.0364586760     1.2541989187
Bq        -2.0857928711    -0.1234241100     1.0740975249
Bq        -2.0868548578     0.0070240410     1.3442496155
Bq        -2.0854388755    -0.1669068270     0.9840468280
Bq        -2.0872088534     0.0505067580     1.4343003124

1
2
3
4
5
6
7
8
9
10
11
12
13
14
15
16
17
18
19
20
21
22
23
24
25
26
27
28
29
30
31
32
33
34
35
36
37
38
39
40
41
42
43
44
45
46
47
48
49
50
51
52
53
54
55
56
57
58
59
60
61
62
63
64
65
66
67
68
69
70
71
72
73
74
75
76
77
78
79
80
81
82
83
84
85
86
87
88
89
90
91
92
93
94
95
96
97
98
99
100
101
102
103
104
105
106
107
108
109
110
111
112
113
114
115
116
117
118
119
120
121
122
123
124
125
126
127
128
129
130
131
132
133
134
135
136
137
138
139
140
141
142
143
144
145
146
147
148
149
150
151
152
153
154
155
156
157
158
159
160
161
162
163
164
165
166
167
168
169
170
171
172
173
174
175
176
177
178
179
180
181
182
183
184
185
186
187
188
189
190
191
192
193
194
195
196
197
198
199
200
201
202
203
204
205
206
207
208
209
210
211
212
213
214
215
216
217
218
219
220
221
222
223
224
225
226
227
228
229
230
231
232
233
234
235
236

