%nproc=8
%mem=1000MB
# rb3lyp/6-311+g** NMR geom=connectivity

Title

0 1
C    -4.0500558   -0.5771862    0.8136712
H    -5.0263804   -1.0082727    1.0024760
C    -3.9381552    0.6617804    0.2400876
H    -4.8252424    1.2338890   -0.0111295
C    -2.6768410    1.2433246    0.0057578
C    -1.4974121    0.5051527    0.2848253
C    -1.6508332   -0.7338728    0.9404026
H    -0.7713646   -1.2730967    1.2633753
C    -2.8898548   -1.2624035    1.1994307
H    -2.9683706   -2.2124563    1.7152676
C    -2.5773185    2.5963696   -0.4192930
H    -3.4870728    3.1412239   -0.6474055
C    -1.3741895    3.2147896   -0.4364030
H    -1.2997315    4.2742019   -0.6578144
C    -0.1719488    2.4994090   -0.1734588
C    -0.2043917    1.1018437    0.0192689
C     1.0513491    3.2042560   -0.0676222
H     1.0427344    4.2819499   -0.1896997
C     2.1942091    2.5487446    0.2579577
H     3.1168527    3.0912848    0.4334727
C     2.2216473    1.1336562    0.2934990
C     1.0486931    0.3945528    0.0302412
C     3.4483363    0.4614633    0.5573939
H     4.3095794    1.0606054    0.8334846
C     3.5427346   -0.8855926    0.4749463
H     4.4731467   -1.3939704    0.7038822
C     2.4490052   -1.6474447   -0.0196319
C     1.2150704   -1.0057258   -0.3013573
C     0.2531113   -1.7434440   -1.0216591
H    -0.6541356   -1.2535051   -1.3462847
C     0.4494193   -3.0628597   -1.3413779
H    -0.3083162   -3.5944309   -1.9054060
C     1.6251726   -3.7207967   -0.9552541
H     1.7670048   -4.7687404   -1.1927019
C     2.6109872   -3.0144177   -0.3183050
H     3.5525612   -3.4902813   -0.0646367
Bq         2.3467508542    -0.3249827670     0.7157755610
Bq         2.1474420352    -0.4580610225     1.1545991846
Bq         2.3866126180    -0.2983671159     0.6280108363
Bq         2.1075802714    -0.4846766736     1.2423639093
Bq         2.4264743817    -0.2717514648     0.5402461116
Bq         2.0677185077    -0.5112923247     1.3301286340
Bq         2.4663361455    -0.2451358137     0.4524813869
Bq         2.2670273266    -0.3782140692     0.8913050104
Bq         2.2161590894    -0.3084367376     1.0033029856
Bq         2.2958826170    -0.2552054354     0.8277735362
Bq         2.1762973257    -0.3350523887     1.0910677103
Bq         2.3357443808    -0.2285897843     0.7400088115
Bq         2.1364355619    -0.3616680398     1.1788324350
Bq         2.3756061446    -0.2019741332     0.6522440868
Bq         2.0965737981    -0.3882836909     1.2665971597
Bq         2.4154679084    -0.1753584821     0.5644793620
Bq         2.0567120343    -0.4148993420     1.3543618845
Bq         2.4553296722    -0.1487428310     0.4767146373
Bq         2.2560208532    -0.2818210865     0.9155382609
Bq         2.2051526161    -0.2120437549     1.0275362361
Bq         2.2848761436    -0.1588124527     0.8520067866
Bq         2.1652908523    -0.2386594060     1.1153009608
Bq         2.3247379074    -0.1321968016     0.7642420619
Bq         2.1254290885    -0.2652750571     1.2030656855
Bq         2.3645996712    -0.1055811505     0.6764773372
Bq         2.0855673247    -0.2918907082     1.2908304102
Bq         2.4044614350    -0.0789654993     0.5887126125
Bq         2.0457055609    -0.3185063593     1.3785951349
Bq         2.4443231988    -0.0523498482     0.5009478878
Bq         2.2450143799    -0.1854281038     0.9397715114
Bq         2.1941461427    -0.1156507722     1.0517694865
Bq         2.2738696703    -0.0624194700     0.8762400371
Bq         2.1542843789    -0.1422664233     1.1395342112
Bq         2.3137314341    -0.0358038189     0.7884753124
Bq         2.1144226151    -0.1688820744     1.2272989359
Bq         2.3535931978    -0.0091881677     0.7007105877
Bq         2.0745608513    -0.1954977255     1.3150636607
Bq         2.3934549616     0.0174274834     0.6129458630
Bq         2.0346990875    -0.2221133766     1.4028283854
Bq         2.4333167254     0.0440431345     0.5251811382
Bq         2.2340079065    -0.0890351211     0.9640047618
Bq         2.8355186846    -4.9352999078    -0.1185396487
Bq         2.9152422122    -4.8820686056    -0.2940690982
Bq         2.7956569208    -4.9619155589    -0.0307749240
Bq         2.9551039760    -4.8554529545    -0.3818338229
Bq         2.7557951570    -4.9885312100     0.0569898007
Bq         2.9949657398    -4.8288373034    -0.4695985476
Bq         2.7159333933    -5.0151468611     0.1447545254
Bq         3.0348275036    -4.8022216522    -0.5573632723
Bq         2.6760716295    -5.0417625122     0.2325192501
Bq         3.0746892673    -4.7756060011    -0.6451279970
Bq         2.8753804484    -4.9086842567    -0.2063043735
Bq         2.8245122112    -4.8389069251    -0.0943063983
Bq         2.9042357388    -4.7856756229    -0.2698358477
Bq         2.7846504475    -4.8655225762    -0.0065416736
Bq         2.9440975026    -4.7590599717    -0.3576005724
Bq         2.7447886837    -4.8921382273     0.0812230511
Bq         2.9839592664    -4.7324443206    -0.4453652971
Bq         2.7049269199    -4.9187538784     0.1689877758
Bq         3.0238210302    -4.7058286695    -0.5331300219
Bq         2.6650651561    -4.9453695295     0.2567525006
Bq         3.0636827940    -4.6792130184    -0.6208947466
Bq         2.8643739750    -4.8122912740    -0.1820711230
Bq         2.8135057379    -4.7425139424    -0.0700731478
Bq         2.8932292654    -4.6892826401    -0.2456025973
Bq         2.7736439741    -4.7691295935     0.0176915769
Bq         2.9330910292    -4.6626669890    -0.3333673220
Bq         2.7337822103    -4.7957452446     0.1054563016
Bq         2.9729527930    -4.6360513379    -0.4211320467
Bq         2.6939204465    -4.8223608957     0.1932210263
Bq         3.0128145568    -4.6094356868    -0.5088967714
Bq         2.6540586827    -4.8489765468     0.2809857510
Bq         3.0526763206    -4.5828200357    -0.5966614961
Bq         2.8533675017    -4.7158982912    -0.1578378725
Bq         2.8024992645    -4.6461209596    -0.0458398974
Bq         2.8822227921    -4.5928896574    -0.2213693468
Bq         2.7626375007    -4.6727366108     0.0419248273
Bq         2.9220845559    -4.5662740063    -0.3091340715
Bq         2.7227757369    -4.6993522619     0.1296895521
Bq         2.9619463196    -4.5396583552    -0.3968987962
Bq         2.6829139731    -4.7259679130     0.2174542768
Bq         3.0018080834    -4.5130427041    -0.4846635209
Bq         2.6430522093    -4.7525835641     0.3052190015
Bq         3.0416698472    -4.4864270530    -0.5724282457
Bq         2.8423610283    -4.6195053085    -0.1336046221
Bq         2.7914927911    -4.5497279769    -0.0216066469
Bq         2.8712163187    -4.4964966747    -0.1971360963
Bq         2.7516310273    -4.5763436280     0.0661580778
Bq         2.9110780825    -4.4698810236    -0.2849008211
Bq         2.7117692636    -4.6029592791     0.1539228025
Bq         2.9509398463    -4.4432653725    -0.3726655458
Bq         2.6719074998    -4.6295749303     0.2416875272
Bq         2.9908016101    -4.4166497214    -0.4604302705
Bq         2.6320457360    -4.6561905814     0.3294522519
Bq         3.0306633739    -4.3900340703    -0.5481949952
Bq         2.8313545549    -4.5231123258    -0.1093713716
Bq         2.7804863178    -4.4533349942     0.0026266035
Bq         2.8602098453    -4.4001036920    -0.1729028459
Bq         2.7406245540    -4.4799506453     0.0903913283
Bq         2.9000716091    -4.3734880409    -0.2606675706
Bq         2.7007627902    -4.5065662964     0.1781560530
Bq         2.9399333729    -4.3468723898    -0.3484322953
Bq         2.6609010264    -4.5331819475     0.2659207777
Bq         2.9797951367    -4.3202567387    -0.4361970200
Bq         2.6210392626    -4.5597975986     0.3536855024
Bq         3.0196569005    -4.2936410876    -0.5239617447
Bq         2.8203480815    -4.4267193431    -0.0851381212
Bq         2.7694798444    -4.3569420115     0.0268598540
Bq         2.8492033720    -4.3037107093    -0.1486695954
Bq         2.7296180806    -4.3835576626     0.1146245787
Bq         2.8890651357    -4.2770950582    -0.2364343201
Bq         2.6897563168    -4.4101733137     0.2023893034
Bq         2.9289268995    -4.2504794071    -0.3241990449
Bq         2.6498945530    -4.4367889648     0.2901540281
Bq         2.9687886633    -4.2238637560    -0.4119637696
Bq         2.6100327892    -4.4634046159     0.3779187529
Bq         3.0086504271    -4.1972481049    -0.4997284943
Bq         2.8093416082    -4.3303263604    -0.0609048707
Bq         2.7584733710    -4.2605490288     0.0510931045
Bq         2.8381968986    -4.2073177266    -0.1244363450
Bq         2.7186116072    -4.2871646799     0.1388578292
Bq         2.8780586624    -4.1807020755    -0.2122010697
Bq         2.6787498434    -4.3137803310     0.2266225539
Bq         2.9179204262    -4.1540864244    -0.2999657944
Bq         2.6388880796    -4.3403959821     0.3143872786
Bq         2.9577821899    -4.1274707733    -0.3877305191
Bq         2.5990263159    -4.3670116332     0.4021520033
Bq         2.9976439537    -4.1008551222    -0.4754952438
Bq         2.7983351348    -4.2339333777    -0.0366716203
Bq         2.7474668976    -4.1641560461     0.0753263549
Bq         2.8271904252    -4.1109247439    -0.1002030945
Bq         2.7076051338    -4.1907716972     0.1630910796
Bq         2.8670521890    -4.0843090928    -0.1879678192
Bq         2.6677433701    -4.2173873483     0.2508558043
Bq         2.9069139528    -4.0576934417    -0.2757325439
Bq         2.6278816063    -4.2440029994     0.3386205291
Bq         2.9467757166    -4.0310777905    -0.3634972686
Bq         2.5880198425    -4.2706186505     0.4263852538
Bq         2.9866374804    -4.0044621394    -0.4512619934
Bq         2.7873286614    -4.1375403950    -0.0124383698
Bq         2.7364604243    -4.0677630634     0.0995596054
Bq         2.8161839518    -4.0145317612    -0.0759698441
Bq         2.6965986605    -4.0943787145     0.1873243301
Bq         2.8560457156    -3.9879161100    -0.1637345688
Bq         2.6567368967    -4.1209943656     0.2750890548
Bq         2.8959074794    -3.9613004589    -0.2514992935
Bq         2.6168751329    -4.1476100167     0.3628537795
Bq         2.9357692432    -3.9346848078    -0.3392640182
Bq         2.5770133691    -4.1742256678     0.4506185042
Bq         2.9756310070    -3.9080691567    -0.4270287429
Bq         2.7763221881    -4.0411474123     0.0117948807
Bq         2.7254539509    -3.9713700807     0.1237928558
Bq         2.8051774785    -3.9181387784    -0.0517365936
Bq         2.6855921871    -3.9979857318     0.2115575805
Bq         2.8450392423    -3.8915231273    -0.1395013183
Bq         2.6457304233    -4.0246013829     0.2993223053
Bq         2.8849010060    -3.8649074762    -0.2272660430
Bq         2.6058686595    -4.0512170340     0.3870870300
Bq         2.9247627698    -3.8382918251    -0.3150307677
Bq         2.5660068957    -4.0778326851     0.4748517547
Bq         2.9646245336    -3.8116761740    -0.4027954924
Bq         2.7653157147    -3.9447544296     0.0360281311
Bq         2.7144474775    -3.8749770979     0.1480261063
Bq         2.7941710051    -3.8217457957    -0.0275033431
Bq         2.6745857137    -3.9015927491     0.2357908310
Bq         2.8340327689    -3.7951301446    -0.1152680678
Bq         2.6347239499    -3.9282084002     0.3235555557
Bq         2.8738945327    -3.7685144935    -0.2030327926
Bq         2.5948621862    -3.9548240513     0.4113202804
Bq         2.9137562965    -3.7418988424    -0.2907975173
Bq         2.5550004224    -3.9814397024     0.4990850051
Bq         2.9536180602    -3.7152831913    -0.3785622420
Bq         2.7543092413    -3.8483614468     0.0602613816
Bq         2.7034410041    -3.7785841152     0.1722593567
Bq         2.7831645317    -3.7253528130    -0.0032700927
Bq         2.6635792404    -3.8051997663     0.2600240815
Bq         2.8230262955    -3.6987371619    -0.0910348174
Bq         2.6237174766    -3.8318154174     0.3477888062
Bq         2.8628880593    -3.6721215108    -0.1787995421
Bq         2.5838557128    -3.8584310686     0.4355535309
Bq         2.9027498231    -3.6455058597    -0.2665642668
Bq         2.5439939490    -3.8850467197     0.5233182556
Bq         2.9426115869    -3.6188902086    -0.3543289915
Bq         2.7433027679    -3.7519684641     0.0844946320
Bq         2.6924345308    -3.6821911325     0.1964926072
Bq         2.7721580584    -3.6289598303     0.0209631578
Bq         2.6525727670    -3.7088067836     0.2842573319
Bq         2.8120198221    -3.6023441792    -0.0668015669
Bq         2.6127110032    -3.7354224347     0.3720220566
Bq         2.8518815859    -3.5757285281    -0.1545662916
Bq         2.5728492394    -3.7620380858     0.4597867813
Bq         2.8917433497    -3.5491128770    -0.2423310164
Bq         2.5329874756    -3.7886537369     0.5475515061
Bq         2.9316051135    -3.5224972259    -0.3300957411
Bq         2.7322962946    -3.6555754814     0.1087278825
Bq         2.6814280574    -3.5857981498     0.2207258577
Bq         2.7611515850    -3.5325668476     0.0451964082
Bq         2.6415662936    -3.6124138009     0.3084905824
Bq         2.8010133488    -3.5059511965    -0.0425683165
Bq         2.6017045298    -3.6390294520     0.3962553071

1
2
3
4
5
6
7
8
9
10
11
12
13
14
15
16
17
18
19
20
21
22
23
24
25
26
27
28
29
30
31
32
33
34
35
36
37
38
39
40
41
42
43
44
45
46
47
48
49
50
51
52
53
54
55
56
57
58
59
60
61
62
63
64
65
66
67
68
69
70
71
72
73
74
75
76
77
78
79
80
81
82
83
84
85
86
87
88
89
90
91
92
93
94
95
96
97
98
99
100
101
102
103
104
105
106
107
108
109
110
111
112
113
114
115
116
117
118
119
120
121
122
123
124
125
126
127
128
129
130
131
132
133
134
135
136
137
138
139
140
141
142
143
144
145
146
147
148
149
150
151
152
153
154
155
156
157
158
159
160
161
162
163
164
165
166
167
168
169
170
171
172
173
174
175
176
177
178
179
180
181
182
183
184
185
186
187
188
189
190
191
192
193
194
195
196
197
198
199
200
201
202
203
204
205
206
207
208
209
210
211
212
213
214
215
216
217
218
219
220
221
222
223
224
225
226
227
228
229
230
231
232
233
234
235
236

