%nproc=8
%mem=1000MB
# rb3lyp/6-311+g** NMR geom=connectivity

Title

0 1
C    -4.0500558   -0.5771862    0.8136712
H    -5.0263804   -1.0082727    1.0024760
C    -3.9381552    0.6617804    0.2400876
H    -4.8252424    1.2338890   -0.0111295
C    -2.6768410    1.2433246    0.0057578
C    -1.4974121    0.5051527    0.2848253
C    -1.6508332   -0.7338728    0.9404026
H    -0.7713646   -1.2730967    1.2633753
C    -2.8898548   -1.2624035    1.1994307
H    -2.9683706   -2.2124563    1.7152676
C    -2.5773185    2.5963696   -0.4192930
H    -3.4870728    3.1412239   -0.6474055
C    -1.3741895    3.2147896   -0.4364030
H    -1.2997315    4.2742019   -0.6578144
C    -0.1719488    2.4994090   -0.1734588
C    -0.2043917    1.1018437    0.0192689
C     1.0513491    3.2042560   -0.0676222
H     1.0427344    4.2819499   -0.1896997
C     2.1942091    2.5487446    0.2579577
H     3.1168527    3.0912848    0.4334727
C     2.2216473    1.1336562    0.2934990
C     1.0486931    0.3945528    0.0302412
C     3.4483363    0.4614633    0.5573939
H     4.3095794    1.0606054    0.8334846
C     3.5427346   -0.8855926    0.4749463
H     4.4731467   -1.3939704    0.7038822
C     2.4490052   -1.6474447   -0.0196319
C     1.2150704   -1.0057258   -0.3013573
C     0.2531113   -1.7434440   -1.0216591
H    -0.6541356   -1.2535051   -1.3462847
C     0.4494193   -3.0628597   -1.3413779
H    -0.3083162   -3.5944309   -1.9054060
C     1.6251726   -3.7207967   -0.9552541
H     1.7670048   -4.7687404   -1.1927019
C     2.6109872   -3.0144177   -0.3183050
H     3.5525612   -3.4902813   -0.0646367
Bq        -3.5876251432    -1.7847459364     1.5372493527
Bq        -3.5908111033    -1.3934014834     2.3477056246
Bq        -3.5872711476    -1.8282286534     1.4471986558
Bq        -3.5890411254    -1.6108150684     1.8974521402
Bq        -3.5892241887    -1.4772809587     1.9440204560
Bq        -3.5885161976    -1.5642463927     1.7639190623
Bq        -3.5895781843    -1.4337982417     2.0340711529
Bq        -3.5881622020    -1.6077291097     1.6738683654
Bq        -3.5899321799    -1.3903155247     2.1241218498
Bq        -3.5878082065    -1.6512118267     1.5838176685
Bq        -3.5902861755    -1.3468328077     2.2141725467
Bq        -3.5874542109    -1.6946945437     1.4937669716
Bq        -3.5906401710    -1.3033500907     2.3042232436
Bq        -3.5871002153    -1.7381772607     1.4037162747
Bq        -3.5888701932    -1.5207636757     1.8539697592
Bq        -3.5890532565    -1.3872295660     1.9005380750
Bq        -3.5883452653    -1.4741950001     1.7204366812
Bq        -3.5894072520    -1.3437468490     1.9905887719
Bq        -3.5879912697    -1.5176777171     1.6303859844
Bq        -3.5897612476    -1.3002641320     2.0806394688
Bq        -3.5876372742    -1.5611604341     1.5403352875
Bq        -3.5901152432    -1.2567814150     2.1706901657
Bq        -3.5872832786    -1.6046431511     1.4502845906
Bq        -3.5904692388    -1.2132986980     2.2607408625
Bq        -3.5869292830    -1.6481258681     1.3602338937
Bq        -3.5886992609    -1.4307122830     1.8104873781
Bq        -3.5888823242    -1.2971781734     1.8570556940
Bq        -3.5881743330    -1.3841436074     1.6769543002
Bq        -3.5892363198    -1.2536954564     1.9471063909
Bq        -3.5878203375    -1.4276263244     1.5869036033
Bq        -3.5895903153    -1.2102127394     2.0371570877
Bq        -3.5874663419    -1.4711090414     1.4968529064
Bq        -3.5899443109    -1.1667300224     2.1272077846
Bq        -3.5871123463    -1.5145917584     1.4068022096
Bq        -3.5902983065    -1.1232473054     2.2172584815
Bq        -3.5867583508    -1.5580744754     1.3167515127
Bq        -3.5885283286    -1.3406608904     1.7670049971
Bq        -3.5887113919    -1.2071267807     1.8135733129
Bq        -3.5880034008    -1.2940922147     1.6334719192
Bq        -3.5890653875    -1.1636440637     1.9036240098
Bq        -3.5876494052    -1.3375749317     1.5434212223
Bq        -3.5894193831    -1.1201613467     1.9936747067
Bq        -3.5872954096    -1.3810576487     1.4533705254
Bq        -3.5897733786    -1.0766786297     2.0837254036
Bq        -3.5869414141    -1.4245403657     1.3633198285
Bq        -3.5901273742    -1.0331959127     2.1737761005
Bq        -3.5865874185    -1.4680230827     1.2732691316
Bq        -3.5883573963    -1.2506094977     1.7235226161
Bq        -3.5885404596    -1.1170753880     1.7700909319
Bq        -3.5878324685    -1.2040408220     1.5899895381
Bq        -3.5888944552    -1.0735926710     1.8601416288
Bq        -3.5874784729    -1.2475235390     1.4999388413
Bq        -3.5892484508    -1.0301099540     1.9501923257
Bq        -3.5871244774    -1.2910062560     1.4098881444
Bq        -3.5896024464    -0.9866272370     2.0402430226
Bq        -3.5867704818    -1.3344889731     1.3198374475
Bq        -3.5899564419    -0.9431445200     2.1302937194
Bq        -3.5864164862    -1.3779716901     1.2297867506
Bq        -3.5881864641    -1.1605581050     1.6800402350
Bq        -3.5883695274    -1.0270239954     1.7266085509
Bq        -3.5876615362    -1.1139894294     1.5465071571
Bq        -3.5887235229    -0.9835412784     1.8166592478
Bq        -3.5873075407    -1.1574721464     1.4564564602
Bq        -3.5890775185    -0.9400585614     1.9067099446
Bq        -3.5869535451    -1.2009548634     1.3664057633
Bq        -3.5894315141    -0.8965758443     1.9967606415
Bq        -3.5865995495    -1.2444375804     1.2763550665
Bq        -3.5897855097    -0.8530931273     2.0868113384
Bq        -3.5862455539    -1.2879202974     1.1863043696
Bq        -3.5880155318    -1.0705067124     1.6365578540
Bq        -3.5881985951    -0.9369726027     1.6831261698
Bq        -3.5874906040    -1.0239380367     1.5030247761
Bq        -3.5885525907    -0.8934898857     1.7731768667
Bq        -3.5871366084    -1.0674207537     1.4129740792
Bq        -3.5889065862    -0.8500071687     1.8632275636
Bq        -3.5867826128    -1.1109034707     1.3229233823
Bq        -3.5892605818    -0.8065244517     1.9532782605
Bq        -3.5864286172    -1.1543861877     1.2328726854
Bq        -3.5896145774    -0.7630417347     2.0433289574
Bq        -3.5860746217    -1.1978689047     1.1428219886
Bq        -3.5878445995    -0.9804553197     1.5930754730
Bq        -3.5880276628    -0.8469212100     1.6396437888
Bq        -3.5873196717    -0.9338866440     1.4595423950
Bq        -3.5883816584    -0.8034384930     1.7296944857
Bq        -3.5869656761    -0.9773693610     1.3694916982
Bq        -3.5887356540    -0.7599557760     1.8197451826
Bq        -3.5866116805    -1.0208520780     1.2794410013
Bq        -3.5890896495    -0.7164730590     1.9097958795
Bq        -3.5862576850    -1.0643347950     1.1893903044
Bq        -3.5894436451    -0.6729903420     1.9998465763
Bq        -3.5859036894    -1.1078175120     1.0993396075
Bq        -3.5876736673    -0.8904039270     1.5495930919
Bq        -3.5878567306    -0.7568698173     1.5961614078
Bq        -3.5871487394    -0.8438352514     1.4160600140
Bq        -3.5882107261    -0.7133871003     1.6862121047
Bq        -3.5867947438    -0.8873179684     1.3260093171
Bq        -3.5885647217    -0.6699043833     1.7762628015
Bq        -3.5864407483    -0.9308006854     1.2359586203
Bq        -3.5889187173    -0.6264216663     1.8663134984
Bq        -3.5860867527    -0.9742834024     1.1459079234
Bq        -3.5892727128    -0.5829389493     1.9563641953
Bq        -3.5857327571    -1.0177661194     1.0558572265
Bq        -3.5875027350    -0.8003525344     1.5061107109
Bq        -3.5876857983    -0.6668184247     1.5526790267
Bq        -3.5869778071    -0.7537838587     1.3725776330
Bq        -3.5880397939    -0.6233357077     1.6427297236
Bq        -3.5866238116    -0.7972665757     1.2825269361
Bq        -3.5883937894    -0.5798529907     1.7327804205
Bq        -3.5862698160    -0.8407492927     1.1924762392
Bq        -3.5887477850    -0.5363702737     1.8228311174
Bq        -3.5859158204    -0.8842320097     1.1024255423
Bq        -3.5891017806    -0.4928875567     1.9128818143
Bq        -3.5855618248    -0.9277147267     1.0123748455
Bq        -3.5873318027    -0.7103011417     1.4626283299
Bq        -3.5875148660    -0.5767670320     1.5091966457
Bq        -3.5868068749    -0.6637324660     1.3290952520
Bq        -3.5878688616    -0.5332843150     1.5992473426
Bq        -3.5864528793    -0.7072151830     1.2390445551
Bq        -3.5882228572    -0.4898015980     1.6892980395
Bq        -3.5860988837    -0.7506979000     1.1489938582
Bq        -3.5885768527    -0.4463188810     1.7793487364
Bq        -3.5857448881    -0.7941806170     1.0589431613
Bq        -3.5889308483    -0.4028361640     1.8693994332
Bq        -3.5853908926    -0.8376633340     0.9688924644
Bq        -3.5871608704    -0.6202497490     1.4191459488
Bq        -3.5873439337    -0.4867156393     1.4657142647
Bq        -3.5866359426    -0.5736810733     1.2856128709
Bq        -3.5876979293    -0.4432329223     1.5557649616
Bq        -3.5862819470    -0.6171637904     1.1955621740
Bq        -3.5880519249    -0.3997502053     1.6458156584
Bq        -3.5859279514    -0.6606465074     1.1055114772
Bq        -3.5884059205    -0.3562674883     1.7358663553
Bq        -3.5855739559    -0.7041292244     1.0154607803
Bq        -3.5887599160    -0.3127847713     1.8259170522
Bq        -3.5852199603    -0.7476119414     0.9254100834
Bq        -3.5869899382    -0.5301983563     1.3756635678
Bq        -3.5871730015    -0.3966642467     1.4222318837
Bq        -3.5864650103    -0.4836296807     1.2421304899
Bq        -3.5875269970    -0.3531815297     1.5122825805
Bq        -3.5861110147    -0.5271123977     1.1520797930
Bq        -3.5878809926    -0.3096988127     1.6023332774
Bq        -3.5857570192    -0.5705951147     1.0620290961
Bq        -3.5882349882    -0.2662160957     1.6923839743
Bq        -3.5854030236    -0.6140778317     0.9719783992
Bq        -3.5885889838    -0.2227333786     1.7824346712
Bq        -3.5850490280    -0.6575605487     0.8819277024
Bq        -3.5868190059    -0.4401469637     1.3321811868
Bq        -3.5870020692    -0.3066128540     1.3787495026
Bq        -3.5862940780    -0.3935782880     1.1986481089
Bq        -3.5873560648    -0.2631301370     1.4688001995
Bq        -3.5859400825    -0.4370610050     1.1085974120
Bq        -3.5877100603    -0.2196474200     1.5588508964
Bq        -3.5855860869    -0.4805437220     1.0185467151
Bq        -3.5880640559    -0.1761647030     1.6489015933
Bq        -3.5852320913    -0.5240264390     0.9284960182
Bq        -3.5884180515    -0.1326819860     1.7389522901
Bq        -3.5848780957    -0.5675091560     0.8384453213
Bq        -3.5866480736    -0.3500955710     1.2886988057
Bq        -3.5868311369    -0.2165614613     1.3352671216
Bq        -3.5861231458    -0.3035268953     1.1551657278
Bq        -3.5871851325    -0.1730787443     1.4253178185
Bq        -3.5857691502    -0.3470096123     1.0651150309
Bq        -3.5875391281    -0.1295960273     1.5153685154
Bq        -3.5854151546    -0.3904923293     0.9750643341
Bq        -3.5878931236    -0.0861133103     1.6054192122
Bq        -3.5850611590    -0.4339750463     0.8850136372
Bq        -3.5882471192    -0.0426305933     1.6954699091
Bq        -3.5847071635    -0.4774577634     0.7949629403
Bq        -3.5864771413    -0.2600441783     1.2452164247
Bq        -3.5866602046    -0.1265100687     1.2917847406
Bq        -3.5859522135    -0.2134755027     1.1116833468
Bq        -3.5870142002    -0.0830273517     1.3818354374
Bq        -3.5855982179    -0.2569582197     1.0216326499
Bq        -3.5873681958    -0.0395446346     1.4718861343
Bq        -3.5852442223    -0.3004409367     0.9315819530
Bq        -3.5877221914     0.0039380824     1.5619368312
Bq        -3.5848902268    -0.3439236537     0.8415312561
Bq        -3.5880761869     0.0474207994     1.6519875281
Bq        -3.5845362312    -0.3874063707     0.7514805593
Bq        -3.5863062091    -0.1699927857     1.2017340437
Bq        -3.5864892724    -0.0364586760     1.2483023595
Bq        -3.5857812812    -0.1234241100     1.0682009658
Bq        -3.5868432679     0.0070240410     1.3383530564
Bq        -3.5854272856    -0.1669068270     0.9781502689
Bq        -3.5871972635     0.0505067580     1.4284037533
Bq        -3.5850732901    -0.2103895440     0.8880995720
Bq        -3.5875512591     0.0939894750     1.5184544502
Bq        -3.5847192945    -0.2538722610     0.7980488751
Bq        -3.5879052547     0.1374721920     1.6085051471
Bq        -3.5843652989    -0.2973549780     0.7079981782
Bq        -3.5861352768    -0.0799413930     1.1582516626
Bq        -3.5863183401     0.0535927167     1.2048199785
Bq        -3.5856103489    -0.0333727173     1.0247185847
Bq        -3.5866723357     0.0970754337     1.2948706754
Bq        -3.5852563534    -0.0768554343     0.9346678878
Bq        -3.5870263312     0.1405581507     1.3849213723
Bq        -3.5849023578    -0.1203381513     0.8446171910
Bq        -3.5873803268     0.1840408677     1.4749720691
Bq        -3.5845483622    -0.1638208683     0.7545664941
Bq        -3.5877343224     0.2275235847     1.5650227660

1
2
3
4
5
6
7
8
9
10
11
12
13
14
15
16
17
18
19
20
21
22
23
24
25
26
27
28
29
30
31
32
33
34
35
36
37
38
39
40
41
42
43
44
45
46
47
48
49
50
51
52
53
54
55
56
57
58
59
60
61
62
63
64
65
66
67
68
69
70
71
72
73
74
75
76
77
78
79
80
81
82
83
84
85
86
87
88
89
90
91
92
93
94
95
96
97
98
99
100
101
102
103
104
105
106
107
108
109
110
111
112
113
114
115
116
117
118
119
120
121
122
123
124
125
126
127
128
129
130
131
132
133
134
135
136
137
138
139
140
141
142
143
144
145
146
147
148
149
150
151
152
153
154
155
156
157
158
159
160
161
162
163
164
165
166
167
168
169
170
171
172
173
174
175
176
177
178
179
180
181
182
183
184
185
186
187
188
189
190
191
192
193
194
195
196
197
198
199
200
201
202
203
204
205
206
207
208
209
210
211
212
213
214
215
216
217
218
219
220
221
222
223
224
225
226
227
228
229
230
231
232
233
234
235
236

