%nproc=8
%mem=1000MB
# rb3lyp/6-311+g** NMR geom=connectivity

Title

0 1
C    -4.0500558   -0.5771862    0.8136712
H    -5.0263804   -1.0082727    1.0024760
C    -3.9381552    0.6617804    0.2400876
H    -4.8252424    1.2338890   -0.0111295
C    -2.6768410    1.2433246    0.0057578
C    -1.4974121    0.5051527    0.2848253
C    -1.6508332   -0.7338728    0.9404026
H    -0.7713646   -1.2730967    1.2633753
C    -2.8898548   -1.2624035    1.1994307
H    -2.9683706   -2.2124563    1.7152676
C    -2.5773185    2.5963696   -0.4192930
H    -3.4870728    3.1412239   -0.6474055
C    -1.3741895    3.2147896   -0.4364030
H    -1.2997315    4.2742019   -0.6578144
C    -0.1719488    2.4994090   -0.1734588
C    -0.2043917    1.1018437    0.0192689
C     1.0513491    3.2042560   -0.0676222
H     1.0427344    4.2819499   -0.1896997
C     2.1942091    2.5487446    0.2579577
H     3.1168527    3.0912848    0.4334727
C     2.2216473    1.1336562    0.2934990
C     1.0486931    0.3945528    0.0302412
C     3.4483363    0.4614633    0.5573939
H     4.3095794    1.0606054    0.8334846
C     3.5427346   -0.8855926    0.4749463
H     4.4731467   -1.3939704    0.7038822
C     2.4490052   -1.6474447   -0.0196319
C     1.2150704   -1.0057258   -0.3013573
C     0.2531113   -1.7434440   -1.0216591
H    -0.6541356   -1.2535051   -1.3462847
C     0.4494193   -3.0628597   -1.3413779
H    -0.3083162   -3.5944309   -1.9054060
C     1.6251726   -3.7207967   -0.9552541
H     1.7670048   -4.7687404   -1.1927019
C     2.6109872   -3.0144177   -0.3183050
H     3.5525612   -3.4902813   -0.0646367
Bq         1.2645579188     0.1305375105     0.4825824682
Bq         1.1921781536     0.1551049359     0.9767055411
Bq         1.2790338719     0.1256240254     0.3837578536
Bq         1.1777022005     0.1600184210     1.0755301557
Bq         1.2935098249     0.1207105403     0.2849332390
Bq         1.1632262475     0.1649319061     1.1743547703
Bq         1.3079857779     0.1157970553     0.1861086244
Bq         1.2356060127     0.1403644807     0.6802316974
Bq         1.2218421936     0.2451571811     0.7741947072
Bq         1.2507940997     0.2353302110     0.5765454780
Bq         1.2073662406     0.2500706662     0.8730193218
Bq         1.2652700527     0.2304167259     0.4777208634
Bq         1.1928902875     0.2549841513     0.9718439363
Bq         1.2797460058     0.2255032408     0.3788962488
Bq         1.1784143345     0.2598976364     1.0706685509
Bq         1.2942219588     0.2205897557     0.2800716343
Bq         1.1639383814     0.2648111215     1.1694931655
Bq         1.3086979119     0.2156762706     0.1812470197
Bq         1.2363181467     0.2402436960     0.6753700926
Bq         1.2225543276     0.3450363965     0.7693331024
Bq         1.2515062336     0.3352094263     0.5716838732
Bq         1.2080783745     0.3499498816     0.8681577170
Bq         1.2659821867     0.3302959413     0.4728592587
Bq         1.1936024215     0.3548633667     0.9669823316
Bq         1.2804581397     0.3253824562     0.3740346441
Bq         1.1791264684     0.3597768518     1.0658069462
Bq         1.2949340928     0.3204689711     0.2752100295
Bq         1.1646505154     0.3646903368     1.1646315608
Bq         1.3094100458     0.3155554860     0.1763854149
Bq         1.2370302806     0.3401229114     0.6705084878
Bq         1.2232664615     0.4449156119     0.7644714976
Bq         1.2522183676     0.4350886417     0.5668222685
Bq         1.2087905085     0.4498290970     0.8632961122
Bq         1.2666943206     0.4301751566     0.4679976539
Bq         1.1943145554     0.4547425820     0.9621207268
Bq         1.2811702737     0.4252616716     0.3691730393
Bq         1.1798386024     0.4596560671     1.0609453414
Bq         1.2956462267     0.4203481865     0.2703484247
Bq         1.1653626493     0.4645695522     1.1597699560
Bq         1.3101221798     0.4154347014     0.1715238101
Bq         1.2377424145     0.4400021268     0.6656468831
Bq         1.2239785954     0.5447948273     0.7596098929
Bq         1.2529305015     0.5349678571     0.5619606637
Bq         1.2095026424     0.5497083123     0.8584345075
Bq         1.2674064546     0.5300543720     0.4631360491
Bq         1.1950266894     0.5546217974     0.9572591220
Bq         1.2818824076     0.5251408869     0.3643114345
Bq         1.1805507363     0.5595352825     1.0560837366
Bq         1.2963583607     0.5202274018     0.2654868200
Bq         1.1660747833     0.5644487676     1.1549083512
Bq         1.3108343137     0.5153139168     0.1666622054
Bq         1.2384545485     0.5398813422     0.6607852783
Bq         1.2246907294     0.6446740426     0.7547482881
Bq         1.2536426355     0.6348470725     0.5570990589
Bq         1.2102147763     0.6495875277     0.8535729027
Bq         1.2681185885     0.6299335874     0.4582744444
Bq         1.1957388233     0.6545010128     0.9523975173
Bq         1.2825945416     0.6250201023     0.3594498298
Bq         1.1812628702     0.6594144979     1.0512221319
Bq         1.2970704946     0.6201066172     0.2606252152
Bq         1.1667869172     0.6643279830     1.1500467465
Bq         1.3115464476     0.6151931321     0.1618006006
Bq         1.2391666824     0.6397605576     0.6559236735
Bq         1.2254028633     0.7445532580     0.7498866833
Bq         1.2543547694     0.7347262878     0.5522374542
Bq         1.2109269103     0.7494667431     0.8487112979
Bq         1.2688307225     0.7298128028     0.4534128396
Bq         1.1964509572     0.7543802282     0.9475359125
Bq         1.2833066755     0.7248993177     0.3545882250
Bq         1.1819750042     0.7592937133     1.0463605271
Bq         1.2977826285     0.7199858326     0.2557636104
Bq         1.1674990511     0.7642071983     1.1451851417
Bq         1.3122585816     0.7150723475     0.1569389958
Bq         1.2398788164     0.7396397729     0.6510620688
Bq         1.2261149973     0.8444324734     0.7450250786
Bq         1.2550669034     0.8346055032     0.5473758494
Bq         1.2116390442     0.8493459585     0.8438496932
Bq         1.2695428564     0.8296920181     0.4485512348
Bq         1.1971630912     0.8542594436     0.9426743078
Bq         1.2840188094     0.8247785331     0.3497266202
Bq         1.1826871381     0.8591729286     1.0414989223
Bq         1.2984947625     0.8198650480     0.2509020057
Bq         1.1682111851     0.8640864137     1.1403235369
Bq         1.3129707155     0.8149515629     0.1520773911
Bq         1.2405909503     0.8395189883     0.6462004640
Bq         1.2268271312     0.9443116888     0.7401634738
Bq         1.2557790373     0.9344847186     0.5425142446
Bq         1.2123511782     0.9492251739     0.8389880884
Bq         1.2702549903     0.9295712335     0.4436896301
Bq         1.1978752251     0.9541386589     0.9378127030
Bq         1.2847309434     0.9246577484     0.3448650155
Bq         1.1833992721     0.9590521440     1.0366373176
Bq         1.2992068964     0.9197442634     0.2460404009
Bq         1.1689233190     0.9639656291     1.1354619322
Bq         1.3136828495     0.9148307783     0.1472157863
Bq         1.2413030843     0.9393982037     0.6413388592
Bq         1.2275392651     1.0441909041     0.7353018690
Bq         1.2564911712     1.0343639340     0.5376526399
Bq         1.2130633121     1.0491043892     0.8341264836
Bq         1.2709671243     1.0294504489     0.4388280253
Bq         1.1985873591     1.0540178743     0.9329510982
Bq         1.2854430773     1.0245369638     0.3400034107
Bq         1.1841114060     1.0589313594     1.0317757128
Bq         1.2999190304     1.0196234787     0.2411787961
Bq         1.1696354530     1.0638448445     1.1306003274
Bq         1.3143949834     1.0147099936     0.1423541815
Bq         1.2420152182     1.0392774191     0.6364772545
Bq         1.2282513991     1.1440701195     0.7304402643
Bq         1.2572033052     1.1342431494     0.5327910351
Bq         1.2137754460     1.1489836046     0.8292648789
Bq         1.2716792582     1.1293296643     0.4339664205
Bq         1.1992994930     1.1538970897     0.9280894935
Bq         1.2861552113     1.1244161792     0.3351418059
Bq         1.1848235400     1.1588105748     1.0269141080
Bq         1.3006311643     1.1195026941     0.2363171914
Bq         1.1703475869     1.1637240599     1.1257387226
Bq         1.3151071174     1.1145892090     0.1374925768
Bq         1.2427273521     1.1391566344     0.6316156497
Bq         1.2289635330     1.2439493349     0.7255786595
Bq         1.2579154391     1.2341223647     0.5279294303
Bq         1.2144875800     1.2488628200     0.8244032741
Bq         1.2723913922     1.2292088797     0.4291048158
Bq         1.2000116269     1.2537763051     0.9232278887
Bq         1.2868673452     1.2242953946     0.3302802012
Bq         1.1855356739     1.2586897901     1.0220525033
Bq         1.3013432983     1.2193819095     0.2314555866
Bq         1.1710597209     1.2636032752     1.1208771179
Bq         1.3158192513     1.2144684244     0.1326309720
Bq         1.2434394861     1.2390358498     0.6267540449
Bq         1.2296756670     1.3438285503     0.7207170547
Bq         1.2586275731     1.3340015801     0.5230678256
Bq         1.2151997139     1.3487420354     0.8195416693
Bq         1.2731035261     1.3290880950     0.4242432110
Bq         1.2007237609     1.3536555204     0.9183662839
Bq         1.2875794792     1.3241746099     0.3254185964
Bq         1.1862478078     1.3585690055     1.0171908985
Bq         1.3020554322     1.3192611249     0.2265939818
Bq         1.1717718548     1.3634824906     1.1160155131
Bq         1.3165313852     1.3143476398     0.1277693672
Bq         1.2441516200     1.3389150652     0.6218924402
Bq         1.2303878009     1.4437077657     0.7158554500
Bq         1.2593397070     1.4338807955     0.5182062208
Bq         1.2159118479     1.4486212507     0.8146800646
Bq         1.2738156600     1.4289673104     0.4193816062
Bq         1.2014358948     1.4535347358     0.9135046792
Bq         1.2882916131     1.4240538253     0.3205569916
Bq         1.1869599418     1.4584482209     1.0123292937
Bq         1.3027675661     1.4191403402     0.2217323771
Bq         1.1724839887     1.4633617060     1.1111539083
Bq         1.3172435192     1.4142268552     0.1229077625
Bq         1.2448637540     1.4387942806     0.6170308354
Bq         1.2310999349     1.5435869810     0.7109938452
Bq         1.2600518409     1.5337600109     0.5133446160
Bq         1.2166239818     1.5485004661     0.8098184598
Bq         1.2745277940     1.5288465258     0.4145200015
Bq         1.2021480288     1.5534139512     0.9086430744
Bq         1.2890037470     1.5239330407     0.3156953869
Bq         1.1876720757     1.5583274363     1.0074676890
Bq         1.3034797001     1.5190195556     0.2168707723
Bq         1.1731961227     1.5632409214     1.1062923036
Bq         1.3179556531     1.5141060705     0.1180461577
Bq         1.2455758879     1.5386734959     0.6121692306
Bq         1.2318120688     1.6434661964     0.7061322404
Bq         1.2607639749     1.6336392262     0.5084830113
Bq         1.2173361158     1.6483796815     0.8049568550
Bq         1.2752399279     1.6287257412     0.4096583967
Bq         1.2028601627     1.6532931666     0.9037814696
Bq         1.2897158810     1.6238122561     0.3108337821
Bq         1.1883842097     1.6582066517     1.0026060842
Bq         1.3041918340     1.6188987710     0.2120091675
Bq         1.1739082566     1.6631201367     1.1014306988
Bq         1.3186677871     1.6139852859     0.1131845529
Bq         1.2462880218     1.6385527113     0.6073076259
Bq         1.2325242027     1.7433454118     0.7012706357
Bq         1.2614761088     1.7335184416     0.5036214065
Bq         1.2180482497     1.7482588969     0.8000952503
Bq         1.2759520619     1.7286049565     0.4047967919
Bq         1.2035722967     1.7531723819     0.8989198649
Bq         1.2904280149     1.7236914715     0.3059721773
Bq         1.1890963436     1.7580858670     0.9977444794
Bq         1.3049039680     1.7187779864     0.2071475628
Bq         1.1746203906     1.7629993521     1.0965690940
Bq         1.3193799210     1.7138645013     0.1083229482
Bq         1.2470001558     1.7384319267     0.6024460211
Bq         1.2332363367     1.8432246272     0.6964090309
Bq         1.2621882428     1.8333976570     0.4987598017
Bq         1.2187603836     1.8481381122     0.7952336455
Bq         1.2766641958     1.8284841719     0.3999351872
Bq         1.2042844306     1.8530515973     0.8940582601
Bq         1.2911401489     1.8235706868     0.3011105726
Bq         1.1898084775     1.8579650824     0.9928828747
Bq         1.3056161019     1.8186572017     0.2022859580
Bq         1.1753325245     1.8628785675     1.0917074893
Bq         1.3200920549     1.8137437167     0.1034613434
Bq         1.2477122897     1.8383111421     0.5975844163
Bq         1.2339484706     1.9431038425     0.6915474261
Bq         1.2629003767     1.9332768724     0.4938981970
Bq         1.2194725176     1.9480173276     0.7903720407
Bq         1.2773763298     1.9283633873     0.3950735824
Bq         1.2049965645     1.9529308127     0.8891966553

1
2
3
4
5
6
7
8
9
10
11
12
13
14
15
16
17
18
19
20
21
22
23
24
25
26
27
28
29
30
31
32
33
34
35
36
37
38
39
40
41
42
43
44
45
46
47
48
49
50
51
52
53
54
55
56
57
58
59
60
61
62
63
64
65
66
67
68
69
70
71
72
73
74
75
76
77
78
79
80
81
82
83
84
85
86
87
88
89
90
91
92
93
94
95
96
97
98
99
100
101
102
103
104
105
106
107
108
109
110
111
112
113
114
115
116
117
118
119
120
121
122
123
124
125
126
127
128
129
130
131
132
133
134
135
136
137
138
139
140
141
142
143
144
145
146
147
148
149
150
151
152
153
154
155
156
157
158
159
160
161
162
163
164
165
166
167
168
169
170
171
172
173
174
175
176
177
178
179
180
181
182
183
184
185
186
187
188
189
190
191
192
193
194
195
196
197
198
199
200
201
202
203
204
205
206
207
208
209
210
211
212
213
214
215
216
217
218
219
220
221
222
223
224
225
226
227
228
229
230
231
232
233
234
235
236

