%nproc=8
%mem=1000MB
# rb3lyp/6-311+g** NMR geom=connectivity

Title

0 1
C    -4.0500558   -0.5771862    0.8136712
H    -5.0263804   -1.0082727    1.0024760
C    -3.9381552    0.6617804    0.2400876
H    -4.8252424    1.2338890   -0.0111295
C    -2.6768410    1.2433246    0.0057578
C    -1.4974121    0.5051527    0.2848253
C    -1.6508332   -0.7338728    0.9404026
H    -0.7713646   -1.2730967    1.2633753
C    -2.8898548   -1.2624035    1.1994307
H    -2.9683706   -2.2124563    1.7152676
C    -2.5773185    2.5963696   -0.4192930
H    -3.4870728    3.1412239   -0.6474055
C    -1.3741895    3.2147896   -0.4364030
H    -1.2997315    4.2742019   -0.6578144
C    -0.1719488    2.4994090   -0.1734588
C    -0.2043917    1.1018437    0.0192689
C     1.0513491    3.2042560   -0.0676222
H     1.0427344    4.2819499   -0.1896997
C     2.1942091    2.5487446    0.2579577
H     3.1168527    3.0912848    0.4334727
C     2.2216473    1.1336562    0.2934990
C     1.0486931    0.3945528    0.0302412
C     3.4483363    0.4614633    0.5573939
H     4.3095794    1.0606054    0.8334846
C     3.5427346   -0.8855926    0.4749463
H     4.4731467   -1.3939704    0.7038822
C     2.4490052   -1.6474447   -0.0196319
C     1.2150704   -1.0057258   -0.3013573
C     0.2531113   -1.7434440   -1.0216591
H    -0.6541356   -1.2535051   -1.3462847
C     0.4494193   -3.0628597   -1.3413779
H    -0.3083162   -3.5944309   -1.9054060
C     1.6251726   -3.7207967   -0.9552541
H     1.7670048   -4.7687404   -1.1927019
C     2.6109872   -3.0144177   -0.3183050
H     3.5525612   -3.4902813   -0.0646367
Bq         3.9158114816     1.4808237156     1.1735963065
Bq         3.7874171600     1.4096854204     1.6515651770
Bq         3.9414903459     1.4950513746     1.0780025325
Bq         3.7617382956     1.3954577614     1.7471589511
Bq         3.9671692102     1.5092790336     0.9824087584
Bq         3.7360594313     1.3812301024     1.8427527252
Bq         3.9928480745     1.5235066926     0.8868149843
Bq         3.8644537529     1.4523683975     1.3647838547
Bq         3.8350838381     1.5371234325     1.4741181684
Bq         3.8864415667     1.5655787506     1.2829306202
Bq         3.8094049737     1.5228957735     1.5697119425
Bq         3.9121204310     1.5798064096     1.1873368461
Bq         3.7837261094     1.5086681145     1.6653057166
Bq         3.9377992954     1.5940340686     1.0917430720
Bq         3.7580472451     1.4944404554     1.7608994907
Bq         3.9634781597     1.6082617277     0.9961492979
Bq         3.7323683808     1.4802127964     1.8564932648
Bq         3.9891570240     1.6224893867     0.9005555238
Bq         3.8607627024     1.5513510915     1.3785243943
Bq         3.8313927875     1.6361061265     1.4878587079
Bq         3.8827505162     1.6645614446     1.2966711598
Bq         3.8057139232     1.6218784675     1.5834524820
Bq         3.9084293805     1.6787891036     1.2010773857
Bq         3.7800350589     1.6076508085     1.6790462561
Bq         3.9341082448     1.6930167627     1.1054836116
Bq         3.7543561946     1.5934231495     1.7746400302
Bq         3.9597871091     1.7072444217     1.0098898375
Bq         3.7286773302     1.5791954904     1.8702338043
Bq         3.9854659735     1.7214720807     0.9142960634
Bq         3.8570716519     1.6503337856     1.3922649339
Bq         3.8277017370     1.7350888206     1.5015992475
Bq         3.8790594656     1.7635441386     1.3104116993
Bq         3.8020228727     1.7208611616     1.5971930216
Bq         3.9047383300     1.7777717977     1.2148179252
Bq         3.7763440083     1.7066335025     1.6927867957
Bq         3.9304171943     1.7919994567     1.1192241511
Bq         3.7506651440     1.6924058435     1.7883805698
Bq         3.9560960586     1.8062271157     1.0236303770
Bq         3.7249862797     1.6781781845     1.8839743439
Bq         3.9817749229     1.8204547748     0.9280366029
Bq         3.8533806013     1.7493164796     1.4060054734
Bq         3.8240106865     1.8340715146     1.5153397871
Bq         3.8753684151     1.8625268327     1.3241522389
Bq         3.7983318221     1.8198438556     1.6109335612
Bq         3.9010472794     1.8767544917     1.2285584648
Bq         3.7726529578     1.8056161966     1.7065273353
Bq         3.9267261437     1.8909821507     1.1329646907
Bq         3.7469740935     1.7913885375     1.8021211094
Bq         3.9524050081     1.9052098098     1.0373709166
Bq         3.7212952292     1.7771608785     1.8977148834
Bq         3.9780838724     1.9194374688     0.9417771425
Bq         3.8496895508     1.8482991736     1.4197460130
Bq         3.8203196359     1.9330542087     1.5290803266
Bq         3.8716773646     1.9615095267     1.3378927784
Bq         3.7946407716     1.9188265496     1.6246741007
Bq         3.8973562289     1.9757371857     1.2422990043
Bq         3.7689619073     1.9045988906     1.7202678748
Bq         3.9230350932     1.9899648448     1.1467052302
Bq         3.7432830430     1.8903712316     1.8158616489
Bq         3.9487139575     2.0041925038     1.0511114562
Bq         3.7176041786     1.8761435725     1.9114554230
Bq         3.9743928219     2.0184201628     0.9555176821
Bq         3.8459985002     1.9472818677     1.4334865525
Bq         3.8166285854     2.0320369027     1.5428208662
Bq         3.8679863140     2.0604922207     1.3516333180
Bq         3.7909497211     2.0178092437     1.6384146403
Bq         3.8936651784     2.0747198798     1.2560395439
Bq         3.7652708567     2.0035815846     1.7340084144
Bq         3.9193440427     2.0889475388     1.1604457698
Bq         3.7395919924     1.9893539256     1.8296021885
Bq         3.9450229070     2.1031751978     1.0648519957
Bq         3.7139131281     1.9751262666     1.9251959626
Bq         3.9707017713     2.1174028569     0.9692582216
Bq         3.8423074497     2.0462645617     1.4472270921
Bq         3.8129375349     2.1310195967     1.5565614057
Bq         3.8642952635     2.1594749148     1.3653738576
Bq         3.7872586705     2.1167919377     1.6521551798
Bq         3.8899741278     2.1737025738     1.2697800835
Bq         3.7615798062     2.1025642787     1.7477489539
Bq         3.9156529921     2.1879302328     1.1741863094
Bq         3.7359009419     2.0883366196     1.8433427280
Bq         3.9413318565     2.2021578919     1.0785925353
Bq         3.7102220776     2.0741089606     1.9389365021
Bq         3.9670107208     2.2163855509     0.9829987612
Bq         3.8386163992     2.1452472558     1.4609676316
Bq         4.0940663117    -2.8181151051     0.8954772096
Bq         4.1454240403    -2.7896597870     0.7042896614
Bq         4.0683874473    -2.8323427641     0.9910709837
Bq         4.1711029046    -2.7754321280     0.6086958873
Bq         4.0427085830    -2.8465704231     1.0866647578
Bq         4.1967817690    -2.7612044690     0.5131021132
Bq         4.0170297187    -2.8607980821     1.1822585319
Bq         4.2224606333    -2.7469768099     0.4175083391
Bq         3.9913508544    -2.8750257412     1.2778523060
Bq         4.2481394976    -2.7327491509     0.3219145650
Bq         4.1197451760    -2.8038874460     0.7998834355
Bq         4.0903752611    -2.7191324110     0.9092177491
Bq         4.1417329898    -2.6906770930     0.7180302010
Bq         4.0646963968    -2.7333600701     1.0048115232
Bq         4.1674118541    -2.6764494339     0.6224364269
Bq         4.0390175325    -2.7475877291     1.1004052973
Bq         4.1930907184    -2.6622217749     0.5268426528
Bq         4.0133386682    -2.7618153881     1.1959990714
Bq         4.2187695827    -2.6479941159     0.4312488787
Bq         3.9876598038    -2.7760430471     1.2915928455
Bq         4.2444484471    -2.6337664569     0.3356551046
Bq         4.1160541255    -2.7049047520     0.8136239751
Bq         4.0866842106    -2.6201497170     0.9229582887
Bq         4.1380419392    -2.5916943989     0.7317707405
Bq         4.0610053463    -2.6343773760     1.0185520628
Bq         4.1637208036    -2.5774667399     0.6361769664
Bq         4.0353264820    -2.6486050350     1.1141458369
Bq         4.1893996679    -2.5632390809     0.5405831923
Bq         4.0096476176    -2.6628326941     1.2097396110
Bq         4.2150785322    -2.5490114219     0.4449894182
Bq         3.9839687533    -2.6770603531     1.3053333851
Bq         4.2407573965    -2.5347837628     0.3493956441
Bq         4.1123630749    -2.6059220580     0.8273645146
Bq         4.0829931601    -2.5211670230     0.9366988283
Bq         4.1343508887    -2.4927117049     0.7455112801
Bq         4.0573142957    -2.5353946820     1.0322926024
Bq         4.1600297530    -2.4784840459     0.6499175060
Bq         4.0316354314    -2.5496223410     1.1278863765
Bq         4.1857086174    -2.4642563868     0.5543237319
Bq         4.0059565671    -2.5638500000     1.2234801505
Bq         4.2113874817    -2.4500287278     0.4587299578
Bq         3.9802777028    -2.5780776591     1.3190739246
Bq         4.2370663460    -2.4358010688     0.3631361837
Bq         4.1086720244    -2.5069393639     0.8411050542
Bq         4.0793021095    -2.4221843289     0.9504393678
Bq         4.1306598382    -2.3937290109     0.7592518196
Bq         4.0536232452    -2.4364119879     1.0460331419
Bq         4.1563387025    -2.3795013518     0.6636580455
Bq         4.0279443809    -2.4506396470     1.1416269160
Bq         4.1820175668    -2.3652736928     0.5680642714
Bq         4.0022655166    -2.4648673060     1.2372206901
Bq         4.2076964311    -2.3510460338     0.4724704973
Bq         3.9765866522    -2.4790949650     1.3328144642
Bq         4.2333752955    -2.3368183748     0.3768767233
Bq         4.1049809738    -2.4079566699     0.8548455937
Bq         4.0756110590    -2.3232016349     0.9641799074
Bq         4.1269687876    -2.2947463168     0.7729923592
Bq         4.0499321947    -2.3374292939     1.0597736815
Bq         4.1526476520    -2.2805186578     0.6773985851
Bq         4.0242533303    -2.3516569529     1.1553674556
Bq         4.1783265163    -2.2662909988     0.5818048110
Bq         3.9985744660    -2.3658846120     1.2509612297
Bq         4.2040053806    -2.2520633397     0.4862110369
Bq         3.9728956017    -2.3801122710     1.3465550038
Bq         4.2296842449    -2.2378356807     0.3906172628
Bq         4.1012899233    -2.3089739759     0.8685861333
Bq         4.0719200085    -2.2242189408     0.9779204469
Bq         4.1232777371    -2.1957636228     0.7867328988
Bq         4.0462411441    -2.2384465999     1.0735142210
Bq         4.1489566014    -2.1815359638     0.6911391247
Bq         4.0205622798    -2.2526742589     1.1691079951
Bq         4.1746354657    -2.1673083047     0.5955453506
Bq         3.9948834155    -2.2669019179     1.2647017692
Bq         4.2003143301    -2.1530806457     0.4999515765
Bq         3.9692045512    -2.2811295770     1.3602955433
Bq         4.2259931944    -2.1388529867     0.4043578024
Bq         4.0975988728    -2.2099912818     0.8823266728
Bq         4.0682289579    -2.1252362468     0.9916609865
Bq         4.1195866866    -2.0967809288     0.8004734383
Bq         4.0425500936    -2.1394639058     1.0872547606
Bq         4.1452655509    -2.0825532697     0.7048796642
Bq         4.0168712293    -2.1536915649     1.1828485347
Bq         4.1709444152    -2.0683256107     0.6092858901
Bq         3.9911923650    -2.1679192239     1.2784423088
Bq         4.1966232795    -2.0540979517     0.5136921160
Bq         3.9655135006    -2.1821468829     1.3740360829
Bq         4.2223021439    -2.0398702926     0.4180983419
Bq         4.0939078222    -2.1110085878     0.8960672124
Bq         4.0645379074    -2.0262535528     1.0054015261
Bq         4.1158956360    -1.9977982347     0.8142139779
Bq         4.0388590431    -2.0404812118     1.1009953002
Bq         4.1415745004    -1.9835705757     0.7186202038
Bq         4.0131801787    -2.0547088708     1.1965890742
Bq         4.1672533647    -1.9693429167     0.6230264297
Bq         3.9875013144    -2.0689365299     1.2921828483
Bq         4.1929322290    -1.9551152576     0.5274326556
Bq         3.9618224501    -2.0831641889     1.3877766224
Bq         4.2186110933    -1.9408875986     0.4318388815
Bq         4.0902167717    -2.0120258937     0.9098077520
Bq         4.0608468568    -1.9272708587     1.0191420656
Bq         4.1122045855    -1.8988155407     0.8279545174
Bq         4.0351679925    -1.9414985178     1.1147358397
Bq         4.1378834498    -1.8845878817     0.7323607433
Bq         4.0094891282    -1.9557261768     1.2103296138
Bq         4.1635623141    -1.8703602226     0.6367669692
Bq         3.9838102639    -1.9699538358     1.3059233879
Bq         4.1892411785    -1.8561325636     0.5411731951
Bq         3.9581313996    -1.9841814949     1.4015171620
Bq         4.2149200428    -1.8419049046     0.4455794210
Bq         4.0865257212    -1.9130431997     0.9235482915
Bq         4.0571558063    -1.8282881647     1.0328826052
Bq         4.1085135350    -1.7998328466     0.8416950570
Bq         4.0314769420    -1.8425158237     1.1284763793
Bq         4.1341923993    -1.7856051876     0.7461012829
Bq         4.0057980777    -1.8567434828     1.2240701534

1
2
3
4
5
6
7
8
9
10
11
12
13
14
15
16
17
18
19
20
21
22
23
24
25
26
27
28
29
30
31
32
33
34
35
36
37
38
39
40
41
42
43
44
45
46
47
48
49
50
51
52
53
54
55
56
57
58
59
60
61
62
63
64
65
66
67
68
69
70
71
72
73
74
75
76
77
78
79
80
81
82
83
84
85
86
87
88
89
90
91
92
93
94
95
96
97
98
99
100
101
102
103
104
105
106
107
108
109
110
111
112
113
114
115
116
117
118
119
120
121
122
123
124
125
126
127
128
129
130
131
132
133
134
135
136
137
138
139
140
141
142
143
144
145
146
147
148
149
150
151
152
153
154
155
156
157
158
159
160
161
162
163
164
165
166
167
168
169
170
171
172
173
174
175
176
177
178
179
180
181
182
183
184
185
186
187
188
189
190
191
192
193
194
195
196
197
198
199
200
201
202
203
204
205
206
207
208
209
210
211
212
213
214
215
216
217
218
219
220
221
222
223
224
225
226
227
228
229
230
231
232
233
234
235
236

