%nproc=8
%mem=1000MB
# rb3lyp/6-311+g** NMR geom=connectivity

Title

0 1
C    -4.0500558   -0.5771862    0.8136712
H    -5.0263804   -1.0082727    1.0024760
C    -3.9381552    0.6617804    0.2400876
H    -4.8252424    1.2338890   -0.0111295
C    -2.6768410    1.2433246    0.0057578
C    -1.4974121    0.5051527    0.2848253
C    -1.6508332   -0.7338728    0.9404026
H    -0.7713646   -1.2730967    1.2633753
C    -2.8898548   -1.2624035    1.1994307
H    -2.9683706   -2.2124563    1.7152676
C    -2.5773185    2.5963696   -0.4192930
H    -3.4870728    3.1412239   -0.6474055
C    -1.3741895    3.2147896   -0.4364030
H    -1.2997315    4.2742019   -0.6578144
C    -0.1719488    2.4994090   -0.1734588
C    -0.2043917    1.1018437    0.0192689
C     1.0513491    3.2042560   -0.0676222
H     1.0427344    4.2819499   -0.1896997
C     2.1942091    2.5487446    0.2579577
H     3.1168527    3.0912848    0.4334727
C     2.2216473    1.1336562    0.2934990
C     1.0486931    0.3945528    0.0302412
C     3.4483363    0.4614633    0.5573939
H     4.3095794    1.0606054    0.8334846
C     3.5427346   -0.8855926    0.4749463
H     4.4731467   -1.3939704    0.7038822
C     2.4490052   -1.6474447   -0.0196319
C     1.2150704   -1.0057258   -0.3013573
C     0.2531113   -1.7434440   -1.0216591
H    -0.6541356   -1.2535051   -1.3462847
C     0.4494193   -3.0628597   -1.3413779
H    -0.3083162   -3.5944309   -1.9054060
C     1.6251726   -3.7207967   -0.9552541
H     1.7670048   -4.7687404   -1.1927019
C     2.6109872   -3.0144177   -0.3183050
H     3.5525612   -3.4902813   -0.0646367
Bq         0.6317685333    -1.7998328466    -0.0922450874
Bq         0.5547319403    -1.8425158237     0.1945362349
Bq         0.6574473976    -1.7856051876    -0.1878388615
Bq         0.5290530760    -1.8567434828     0.2901300090
Bq         0.6831262619    -1.7713775286    -0.2834326356
Bq         0.5033742117    -1.8709711418     0.3857237831
Bq         0.7088051263    -1.7571498696    -0.3790264097
Bq         0.4776953473    -1.8851988008     0.4813175572
Bq         0.7344839906    -1.7429222105    -0.4746201838
Bq         0.6060896690    -1.8140605057     0.0033486867
Bq         0.5767197541    -1.7293054707     0.1126830003
Bq         0.6280774827    -1.7008501526    -0.0785045479
Bq         0.5510408898    -1.7435331297     0.2082767744
Bq         0.6537563471    -1.6866224936    -0.1740983220
Bq         0.5253620255    -1.7577607887     0.3038705485
Bq         0.6794352114    -1.6723948346    -0.2696920960
Bq         0.4996831611    -1.7719884478     0.3994643226
Bq         0.7051140757    -1.6581671755    -0.3652858701
Bq         0.4740042968    -1.7862161068     0.4950580967
Bq         0.7307929400    -1.6439395165    -0.4608796442
Bq         0.6023986184    -1.7150778116     0.0170892262
Bq         0.5730287036    -1.6303227766     0.1264235399
Bq         0.6243864322    -1.6018674586    -0.0647640083
Bq         0.5473498392    -1.6445504357     0.2220173140
Bq         0.6500652965    -1.5876397995    -0.1603577824
Bq         0.5216709749    -1.6587780947     0.3176110881
Bq         0.6757441609    -1.5734121405    -0.2559515565
Bq         0.4959921106    -1.6730057537     0.4132048622
Bq         0.7014230252    -1.5591844815    -0.3515453306
Bq         0.4703132463    -1.6872334127     0.5087986363
Bq         0.7271018895    -1.5449568225    -0.4471391047
Bq         0.5987075679    -1.6160951176     0.0308297658
Bq         0.5693376530    -1.5313400826     0.1401640794
Bq         0.6206953817    -1.5028847645    -0.0510234687
Bq         0.5436587887    -1.5455677416     0.2357578535
Bq         0.6463742460    -1.4886571055    -0.1466172428
Bq         0.5179799244    -1.5597954007     0.3313516276
Bq         0.6720531103    -1.4744294465    -0.2422110169
Bq         0.4923010601    -1.5740230597     0.4269454017
Bq         0.6977319746    -1.4602017875    -0.3378047910
Bq         0.4666221957    -1.5882507187     0.5225391758
Bq         0.7234108390    -1.4459741284    -0.4333985651
Bq         0.5950165174    -1.5171124236     0.0445703054
Bq         0.5656466025    -1.4323573886     0.1539046190
Bq         0.6170043311    -1.4039020705    -0.0372829292
Bq         0.5399677382    -1.4465850476     0.2494983931
Bq         0.6426831955    -1.3896744115    -0.1328767033
Bq         0.5142888739    -1.4608127066     0.3450921672
Bq         0.6683620598    -1.3754467524    -0.2284704774
Bq         0.4886100095    -1.4750403656     0.4406859413
Bq         0.6940409241    -1.3612190934    -0.3240642515
Bq         0.4629311452    -1.4892680247     0.5362797154
Bq         0.7197197884    -1.3469914344    -0.4196580256
Bq         0.5913254668    -1.4181297295     0.0583108449
Bq         0.5619555520    -1.3333746945     0.1676451586
Bq         0.6133132806    -1.3049193765    -0.0235423896
Bq         0.5362766876    -1.3476023536     0.2632389327
Bq         0.6389921449    -1.2906917174    -0.1191361637
Bq         0.5105978233    -1.3618300126     0.3588327068
Bq         0.6646710093    -1.2764640584    -0.2147299378
Bq         0.4849189590    -1.3760576716     0.4544264809
Bq         0.6903498736    -1.2622363994    -0.3103237119
Bq         0.4592400947    -1.3902853306     0.5500202549
Bq         0.7160287379    -1.2480087404    -0.4059174860
Bq         0.5876344163    -1.3191470355     0.0720513845
Bq         0.5582645014    -1.2343920005     0.1813856981
Bq         0.6096222301    -1.2059366824    -0.0098018501
Bq         0.5325856371    -1.2486196595     0.2769794722
Bq         0.6353010944    -1.1917090234    -0.1053956242
Bq         0.5069067728    -1.2628473185     0.3725732463
Bq         0.6609799587    -1.1774813644    -0.2009893983
Bq         0.4812279085    -1.2770749776     0.4681670204
Bq         0.6866588230    -1.1632537054    -0.2965831723
Bq         0.4555490441    -1.2913026366     0.5637607945
Bq         0.7123376874    -1.1490260463    -0.3921769464
Bq         0.5839433657    -1.2201643415     0.0857919240
Bq         0.5545734509    -1.1354093065     0.1951262377
Bq         0.6059311795    -1.1069539884     0.0039386895
Bq         0.5288945866    -1.1496369655     0.2907200118
Bq         0.6316100439    -1.0927263294    -0.0916550846
Bq         0.5032157222    -1.1638646245     0.3863137859
Bq         0.6572889082    -1.0784986703    -0.1872488587
Bq         0.4775368579    -1.1780922835     0.4819075600
Bq         0.6829677725    -1.0642710113    -0.2828426328
Bq         0.4518579936    -1.1923199426     0.5775013341
Bq         0.7086466368    -1.0500433523    -0.3784364069
Bq         0.5802523152    -1.1211816474     0.0995324636
Bq         0.5508824004    -1.0364266124     0.2088667772
Bq         0.6022401290    -1.0079712944     0.0176792291
Bq         0.5252035360    -1.0506542714     0.3044605513
Bq         0.6279189933    -0.9937436353    -0.0779145450
Bq         0.4995246717    -1.0648819305     0.4000543254
Bq         0.6535978576    -0.9795159763    -0.1735083191
Bq         0.4738458074    -1.0791095895     0.4956480995
Bq         0.6792767220    -0.9652883173    -0.2691020932
Bq         0.4481669431    -1.0933372485     0.5912418736
Bq         0.7049555863    -0.9510606583    -0.3646958673
Bq         0.5765612647    -1.0221989534     0.1132730031
Bq         0.5471913498    -0.9374439184     0.2226073168
Bq         0.5985490785    -0.9089886003     0.0314197686
Bq         0.5215124855    -0.9516715774     0.3182010909
Bq         0.6242279428    -0.8947609413    -0.0641740055
Bq         0.4958336212    -0.9658992364     0.4137948650
Bq         0.6499068071    -0.8805332823    -0.1597677796
Bq         0.4701547569    -0.9801268955     0.5093886391
Bq         0.6755856714    -0.8663056232    -0.2553615537
Bq         0.4444758925    -0.9943545545     0.6049824132
Bq         0.7012645358    -0.8520779642    -0.3509553278
Bq         0.5728702141    -0.9232162594     0.1270135427
Bq         0.5435002993    -0.8384612243     0.2363478564
Bq         0.5948580279    -0.8100059063     0.0451603082
Bq         0.5178214350    -0.8526888834     0.3319416305
Bq         0.6205368923    -0.7957782473    -0.0504334659
Bq         0.4921425706    -0.8669165424     0.4275354046
Bq         0.6462157566    -0.7815505882    -0.1460272400
Bq         0.4664637063    -0.8811442014     0.5231291786
Bq         0.6718946209    -0.7673229292    -0.2416210141
Bq         0.4407848420    -0.8953718605     0.6187229527
Bq         0.6975734852    -0.7530952702    -0.3372147882
Bq         0.5691791636    -0.8242335653     0.1407540823
Bq         0.5398092487    -0.7394785303     0.2500883959
Bq         0.5911669774    -0.7110232123     0.0589008477
Bq         0.5141303844    -0.7537061893     0.3456821700
Bq         0.6168458417    -0.6967955532    -0.0366929264
Bq         0.4884515201    -0.7679338484     0.4412759441
Bq         0.6425247060    -0.6825678942    -0.1322867005
Bq         0.4627726558    -0.7821615074     0.5368697182
Bq         0.6682035704    -0.6683402352    -0.2278804746
Bq         0.4370937915    -0.7963891664     0.6324634923
Bq         0.6938824347    -0.6541125761    -0.3234742486
Bq         0.5654881131    -0.7252508713     0.1544946218
Bq         0.5361181982    -0.6404958363     0.2638289355
Bq         0.5874759269    -0.6120405182     0.0726413873
Bq         0.5104393339    -0.6547234953     0.3594227096
Bq         0.6131547912    -0.5978128592    -0.0229523868
Bq         0.4847604696    -0.6689511543     0.4550164837
Bq         0.6388336555    -0.5835852002    -0.1185461609
Bq         0.4590816052    -0.6831788134     0.5506102578
Bq         0.6645125198    -0.5693575411    -0.2141399350
Bq         0.4334027409    -0.6974064724     0.6462040319
Bq         0.6901913841    -0.5551298821    -0.3097337091
Bq         0.5617970625    -0.6262681772     0.1682351614
Bq         0.5324271477    -0.5415131422     0.2775694750
Bq         0.5837848763    -0.5130578242     0.0863819268
Bq         0.5067482834    -0.5557408013     0.3731632491
Bq         0.6094637406    -0.4988301652    -0.0092118472
Bq         0.4810694190    -0.5699684603     0.4687570232
Bq         0.6351426050    -0.4846025061    -0.1048056213
Bq         0.4553905547    -0.5841961193     0.5643507973
Bq         0.6608214693    -0.4703748471    -0.2003993954
Bq         0.4297116904    -0.5984237784     0.6599445714
Bq         0.6865003336    -0.4561471881    -0.2959931695
Bq         0.5581060120    -0.5272854832     0.1819757009
Bq         0.5287360971    -0.4425304482     0.2913100146
Bq         0.5800938258    -0.4140751301     0.1001224664
Bq         0.5030572328    -0.4567581072     0.3869037887
Bq         0.6057726901    -0.3998474711     0.0045286923
Bq         0.4773783685    -0.4709857663     0.4824975628
Bq         0.6314515544    -0.3856198121    -0.0910650818
Bq         0.4516995042    -0.4852134253     0.5780913369
Bq         0.6571304188    -0.3713921531    -0.1866588559
Bq         0.4260206399    -0.4994410843     0.6736851110
Bq         0.6828092831    -0.3571644940    -0.2822526300
Bq         0.5544149615    -0.4283027892     0.1957162405
Bq         0.5250450466    -0.3435477542     0.3050505542
Bq         0.5764027753    -0.3150924361     0.1138630060
Bq         0.4993661823    -0.3577754132     0.4006443283
Bq         0.6020816396    -0.3008647771     0.0182692319
Bq         0.4736873180    -0.3720030722     0.4962381023
Bq         0.6277605039    -0.2866371181    -0.0773245422
Bq         0.4480084536    -0.3862307313     0.5918318764
Bq         0.6534393682    -0.2724094590    -0.1729183163
Bq         0.4223295893    -0.4004583903     0.6874256505
Bq         0.6791182325    -0.2581818000    -0.2685120904
Bq         0.5507239109    -0.3293200951     0.2094567801
Bq         0.5213539961    -0.2445650601     0.3187910937
Bq         0.5727117247    -0.2161097421     0.1276035455
Bq         0.4956751317    -0.2587927192     0.4143848678
Bq         0.5983905890    -0.2018820830     0.0320097714
Bq         0.4699962674    -0.2730203782     0.5099786419
Bq         0.6240694534    -0.1876544240    -0.0635840027
Bq         0.4443174031    -0.2872480372     0.6055724160
Bq         0.6497483177    -0.1734267650    -0.1591777768
Bq         0.4186385388    -0.3014756962     0.7011661901
Bq         0.6754271820    -0.1591991060    -0.2547715509
Bq         0.5470328604    -0.2303374011     0.2231973196
Bq         0.5176629455    -0.1455823661     0.3325316333
Bq         0.5690206742    -0.1171270480     0.1413440851
Bq         0.4919840812    -0.1598100251     0.4281254074
Bq         0.5946995385    -0.1028993890     0.0457503110
Bq         0.4663052169    -0.1740376842     0.5237191815
Bq         0.6203784028    -0.0886717300    -0.0498434631
Bq         0.4406263526    -0.1882653432     0.6193129556
Bq         0.6460572671    -0.0744440710    -0.1454372372
Bq         0.4149474882    -0.2024930022     0.7149067297
Bq         0.6717361315    -0.0602164119    -0.2410310113
Bq         0.5433418099    -0.1313547071     0.2369378592
Bq         0.5139718950    -0.0465996721     0.3462721728
Bq         0.5653296236    -0.0181443540     0.1550846246
Bq         0.4882930307    -0.0608273311     0.4418659469

1
2
3
4
5
6
7
8
9
10
11
12
13
14
15
16
17
18
19
20
21
22
23
24
25
26
27
28
29
30
31
32
33
34
35
36
37
38
39
40
41
42
43
44
45
46
47
48
49
50
51
52
53
54
55
56
57
58
59
60
61
62
63
64
65
66
67
68
69
70
71
72
73
74
75
76
77
78
79
80
81
82
83
84
85
86
87
88
89
90
91
92
93
94
95
96
97
98
99
100
101
102
103
104
105
106
107
108
109
110
111
112
113
114
115
116
117
118
119
120
121
122
123
124
125
126
127
128
129
130
131
132
133
134
135
136
137
138
139
140
141
142
143
144
145
146
147
148
149
150
151
152
153
154
155
156
157
158
159
160
161
162
163
164
165
166
167
168
169
170
171
172
173
174
175
176
177
178
179
180
181
182
183
184
185
186
187
188
189
190
191
192
193
194
195
196
197
198
199
200
201
202
203
204
205
206
207
208
209
210
211
212
213
214
215
216
217
218
219
220
221
222
223
224
225
226
227
228
229
230
231
232
233
234
235
236

