%nproc=8
%mem=1000MB
# rb3lyp/6-311+g** NMR geom=connectivity

Title

0 1
C    -4.0500558   -0.5771862    0.8136712
H    -5.0263804   -1.0082727    1.0024760
C    -3.9381552    0.6617804    0.2400876
H    -4.8252424    1.2338890   -0.0111295
C    -2.6768410    1.2433246    0.0057578
C    -1.4974121    0.5051527    0.2848253
C    -1.6508332   -0.7338728    0.9404026
H    -0.7713646   -1.2730967    1.2633753
C    -2.8898548   -1.2624035    1.1994307
H    -2.9683706   -2.2124563    1.7152676
C    -2.5773185    2.5963696   -0.4192930
H    -3.4870728    3.1412239   -0.6474055
C    -1.3741895    3.2147896   -0.4364030
H    -1.2997315    4.2742019   -0.6578144
C    -0.1719488    2.4994090   -0.1734588
C    -0.2043917    1.1018437    0.0192689
C     1.0513491    3.2042560   -0.0676222
H     1.0427344    4.2819499   -0.1896997
C     2.1942091    2.5487446    0.2579577
H     3.1168527    3.0912848    0.4334727
C     2.2216473    1.1336562    0.2934990
C     1.0486931    0.3945528    0.0302412
C     3.4483363    0.4614633    0.5573939
H     4.3095794    1.0606054    0.8334846
C     3.5427346   -0.8855926    0.4749463
H     4.4731467   -1.3939704    0.7038822
C     2.4490052   -1.6474447   -0.0196319
C     1.2150704   -1.0057258   -0.3013573
C     0.2531113   -1.7434440   -1.0216591
H    -0.6541356   -1.2535051   -1.3462847
C     0.4494193   -3.0628597   -1.3413779
H    -0.3083162   -3.5944309   -1.9054060
C     1.6251726   -3.7207967   -0.9552541
H     1.7670048   -4.7687404   -1.1927019
C     2.6109872   -3.0144177   -0.3183050
H     3.5525612   -3.4902813   -0.0646367
Bq        -4.7821339075     0.8733131267     0.1380099775
Bq        -4.7839038853     1.0907267117     0.5882634619
Bq        -4.7840869486     1.2242608214     0.6348317778
Bq        -4.7833789575     1.1372953874     0.4547303840
Bq        -4.7844409442     1.2677435384     0.7248824746
Bq        -4.7830249619     1.0938126704     0.3646796871
Bq        -4.7847949398     1.3112262554     0.8149331715
Bq        -4.7826709663     1.0503299534     0.2746289902
Bq        -4.7851489354     1.3547089724     0.9049838684
Bq        -4.7823169708     1.0068472364     0.1845782933
Bq        -4.7855029309     1.3981916894     0.9950345653
Bq        -4.7819629752     0.9633645194     0.0945275965
Bq        -4.7837329531     1.1807781044     0.5447810809
Bq        -4.7839160164     1.3143122141     0.5913493967
Bq        -4.7832080252     1.2273467801     0.4112480030
Bq        -4.7842700119     1.3577949311     0.6814000936
Bq        -4.7828540296     1.1838640631     0.3211973061
Bq        -4.7846240075     1.4012776481     0.7714507905
Bq        -4.7825000341     1.1403813461     0.2311466092
Bq        -4.7849780031     1.4447603651     0.8615014874
Bq        -4.7821460385     1.0968986291     0.1410959123
Bq        -4.7853319987     1.4882430821     0.9515521843
Bq        -4.7817920429     1.0534159120     0.0510452154
Bq        -4.7835620208     1.2708294971     0.5012986998
Bq        -4.7837450841     1.4043636067     0.5478670157
Bq        -4.7830370929     1.3173981727     0.3677656219
Bq        -4.7840990797     1.4478463237     0.6379177126
Bq        -4.7826830974     1.2739154557     0.2777149250
Bq        -4.7844530752     1.4913290408     0.7279684095
Bq        -4.7823291018     1.2304327387     0.1876642282
Bq        -4.7848070708     1.5348117578     0.8180191063
Bq        -4.7819751062     1.1869500217     0.0976135313
Bq        -4.7851610664     1.5782944748     0.9080698032
Bq        -4.7816211106     1.1434673047     0.0075628344
Bq        -4.7833910885     1.3608808897     0.4578163188
Bq        -4.7835741518     1.4944149994     0.5043846347
Bq        -4.7828661607     1.4074495654     0.3242832409
Bq        -4.7839281474     1.5378977164     0.5944353315
Bq        -4.7825121651     1.3639668484     0.2342325440
Bq        -4.7842821430     1.5813804334     0.6844860284
Bq        -4.7821581695     1.3204841314     0.1441818471
Bq        -4.7846361385     1.6248631504     0.7745367253
Bq        -4.7818041739     1.2770014144     0.0541311503
Bq        -4.7849901341     1.6683458674     0.8645874222
Bq        -4.7814501784     1.2335186974    -0.0359195466
Bq        -4.7832201562     1.4509322824     0.4143339378
Bq        -4.7834032195     1.5844663921     0.4609022536
Bq        -4.7826952284     1.4975009581     0.2808008599
Bq        -4.7837572151     1.6279491091     0.5509529505
Bq        -4.7823412328     1.4540182411     0.1907501630
Bq        -4.7841112107     1.6714318261     0.6410036474
Bq        -4.7819872372     1.4105355241     0.1006994661
Bq        -4.7844652063     1.7149145431     0.7310543443
Bq        -4.7816332417     1.3670528071     0.0106487692
Bq        -4.7848192018     1.7583972601     0.8211050412
Bq        -4.7812792461     1.3235700901    -0.0794019277
Bq        -4.7830492240     1.5409836751     0.3708515567
Bq        -4.7832322873     1.6745177848     0.4174198726
Bq        -4.7825242961     1.5875523507     0.2373184788
Bq        -4.7835862828     1.7180005018     0.5074705695
Bq        -4.7821703005     1.5440696337     0.1472677820
Bq        -4.7839402784     1.7614832188     0.5975212664
Bq        -4.7818163050     1.5005869167     0.0572170851
Bq        -4.7842942740     1.8049659358     0.6875719632
Bq        -4.7814623094     1.4571041997    -0.0328336118
Bq        -4.7846482696     1.8484486528     0.7776226601
Bq        -4.7811083138     1.4136214827    -0.1228843087
Bq        -4.7828782917     1.6310350678     0.3273691757
Bq        -4.7830613550     1.7645691774     0.3739374916
Bq        -4.7823533638     1.6776037434     0.1938360978
Bq        -4.7834153506     1.8080518944     0.4639881884
Bq        -4.7819993683     1.6341210264     0.1037854009
Bq        -4.7837693461     1.8515346114     0.5540388853
Bq        -4.7816453727     1.5906383094     0.0137347040
Bq        -4.7841233417     1.8950173284     0.6440895822
Bq        -4.7812913771     1.5471555924    -0.0763159928
Bq        -4.7844773373     1.9385000454     0.7341402791
Bq        -4.7809373815     1.5036728754    -0.1663666897
Bq        -4.7827073594     1.7210864604     0.2838867947
Bq        -4.7828904227     1.8546205701     0.3304551105
Bq        -4.7821824316     1.7676551361     0.1503537168
Bq        -4.7832444183     1.8981032871     0.4205058074
Bq        -4.7818284360     1.7241724191     0.0603030199
Bq        -4.7835984139     1.9415860041     0.5105565043
Bq        -4.7814744404     1.6806897021    -0.0297476770
Bq        -4.7839524094     1.9850687211     0.6006072012
Bq        -4.7811204448     1.6372069851    -0.1197983739
Bq        -4.7843064050     2.0285514381     0.6906578981
Bq        -4.7807664493     1.5937242681    -0.2098490708
Bq        -4.7825364271     1.8111378531     0.2404044137
Bq        -4.7827194904     1.9446719628     0.2869727295
Bq        -4.7820114993     1.8577065288     0.1068713357
Bq        -4.7830734860     1.9881546798     0.3770234264
Bq        -4.7816575037     1.8142238118     0.0168206389
Bq        -4.7834274816     2.0316373968     0.4670741233
Bq        -4.7813035081     1.7707410947    -0.0732300580
Bq        -4.7837814772     2.0751201138     0.5571248201
Bq        -4.7809495126     1.7272583777    -0.1632807549
Bq        -4.7841354727     2.1186028308     0.6471755170
Bq        -4.7805955170     1.6837756607    -0.2533314518
Bq        -4.7823654949     1.9011892458     0.1969220326
Bq        -4.7825485582     2.0347233554     0.2434903485
Bq        -4.7818405670     1.9477579214     0.0633889547
Bq        -4.7829025537     2.0782060724     0.3335410454
Bq        -4.7814865714     1.9042752044    -0.0266617422
Bq        -4.7832565493     2.1216887894     0.4235917422
Bq        -4.7811325759     1.8607924874    -0.1167124391
Bq        -4.7836105449     2.1651715065     0.5136424391
Bq        -4.7807785803     1.8173097704    -0.2067631359
Bq        -4.7839645405     2.2086542235     0.6036931360
Bq        -4.7804245847     1.7738270534    -0.2968138328
Bq        -4.7821945626     1.9912406384     0.1534396516
Bq        -4.7823776259     2.1247747481     0.2000079674
Bq        -4.7816696347     2.0378093141     0.0199065737
Bq        -4.7827316215     2.1682574651     0.2900586643
Bq        -4.7813156392     1.9943265971    -0.0701441232
Bq        -4.7830856170     2.2117401821     0.3801093612
Bq        -4.7809616436     1.9508438801    -0.1601948201
Bq        -4.7834396126     2.2552228991     0.4701600581
Bq        -4.7806076480     1.9073611631    -0.2502455170
Bq        -4.7837936082     2.2987056161     0.5602107550
Bq        -4.7802536524     1.8638784461    -0.3402962139
Bq        -4.7820236303     2.0812920311     0.1099572706
Bq        -4.7822066936     2.2148261408     0.1565255864
Bq        -4.7814987025     2.1278607068    -0.0235758074
Bq        -4.7825606892     2.2583088578     0.2465762833
Bq        -4.7811447069     2.0843779898    -0.1136265042
Bq        -4.7829146848     2.3017915748     0.3366269802
Bq        -4.7807907113     2.0408952728    -0.2036772011
Bq        -4.7832686803     2.3452742918     0.4266776771
Bq        -4.7804367157     1.9974125558    -0.2937278980
Bq        -4.7836226759     2.3887570088     0.5167283739
Bq        -4.7800827202     1.9539298388    -0.3837785949
Bq        -4.7818526980     2.1713434238     0.0664748895
Bq        -4.7820357613     2.3048775334     0.1130432054
Bq        -4.7813277702     2.2179120994    -0.0670581884
Bq        -4.7823897569     2.3483602505     0.2030939023
Bq        -4.7809737746     2.1744293824    -0.1571088853
Bq        -4.7827437525     2.3918429675     0.2931445991
Bq        -4.7806197790     2.1309466654    -0.2471595822
Bq        -4.7830977481     2.4353256845     0.3831952960
Bq        -4.7802657835     2.0874639484    -0.3372102790
Bq        -4.7834517436     2.4788084015     0.4732459929
Bq        -4.7799117879     2.0439812314    -0.4272609759
Bq        -4.7816817658     2.2613948164     0.0229925085
Bq        -4.7818648291     2.3949289261     0.0695608243
Bq        -4.7811568379     2.3079634921    -0.1105405694
Bq        -4.7822188246     2.4384116431     0.1596115212
Bq        -4.7808028423     2.2644807751    -0.2005912663
Bq        -4.7825728202     2.4818943601     0.2496622181
Bq        -4.7804488468     2.2209980581    -0.2906419632
Bq        -4.7829268158     2.5253770771     0.3397129150
Bq        -4.7800948512     2.1775153411    -0.3806926601
Bq        -4.7832808114     2.5688597941     0.4297636119
Bq        -4.7797408556     2.1340326241    -0.4707433570
Bq        -4.7815108335     2.3514462091    -0.0204898725
Bq        -4.7816938968     2.4849803188     0.0260784433
Bq        -4.7809859056     2.3980148848    -0.1540229505
Bq        -4.7820478924     2.5284630358     0.1161291402
Bq        -4.7806319101     2.3545321678    -0.2440736473
Bq        -4.7824018879     2.5719457528     0.2061798371
Bq        -4.7802779145     2.3110494508    -0.3341243442
Bq        -4.7827558835     2.6154284698     0.2962305340
Bq        -4.7799239189     2.2675667338    -0.4241750411
Bq        -4.7831098791     2.6589111868     0.3862812308
Bq        -4.7795699233     2.2240840168    -0.5142257380
Bq        -4.7813399012     2.4414976018    -0.0639722536
Bq        -4.6902412832    -2.0175893147     2.2005905989
Bq        -4.6895332920    -2.1045547487     2.0204892051
Bq        -4.6905952787    -1.9741065977     2.2906412958
Bq        -4.6891792965    -2.1480374658     1.9304385082
Bq        -4.6909492743    -1.9306238807     2.3806919926
Bq        -4.6888253009    -2.1915201828     1.8403878113
Bq        -4.6913032699    -1.8871411637     2.4707426895
Bq        -4.6884713053    -2.2350028998     1.7503371145
Bq        -4.6916572655    -1.8436584467     2.5607933864
Bq        -4.6881173097    -2.2784856168     1.6602864176
Bq        -4.6898872876    -2.0610720317     2.1105399020
Bq        -4.6900703509    -1.9275379221     2.1571082178
Bq        -4.6893623598    -2.0145033561     1.9770068241
Bq        -4.6904243465    -1.8840552051     2.2471589147
Bq        -4.6890083642    -2.0579860731     1.8869561272
Bq        -4.6907783420    -1.8405724881     2.3372096116
Bq        -4.6886543686    -2.1014687901     1.7969054303
Bq        -4.6911323376    -1.7970897711     2.4272603085
Bq        -4.6883003730    -2.1449515071     1.7068547334
Bq        -4.6914863332    -1.7536070540     2.5173110054
Bq        -4.6879463775    -2.1884342241     1.6168040365
Bq        -4.6897163553    -1.9710206391     2.0670575210
Bq        -4.6898994186    -1.8374865294     2.1136258368
Bq        -4.6891914275    -1.9244519634     1.9335244430
Bq        -4.6902534142    -1.7940038124     2.2036765337
Bq        -4.6888374319    -1.9679346804     1.8434737462
Bq        -4.6906074098    -1.7505210954     2.2937272306
Bq        -4.6884834363    -2.0114173974     1.7534230493
Bq        -4.6909614053    -1.7070383784     2.3837779275
Bq        -4.6881294408    -2.0549001144     1.6633723524
Bq        -4.6913154009    -1.6635556614     2.4738286243
Bq        -4.6877754452    -2.0983828314     1.5733216555
Bq        -4.6895454231    -1.8809692464     2.0235751399

1
2
3
4
5
6
7
8
9
10
11
12
13
14
15
16
17
18
19
20
21
22
23
24
25
26
27
28
29
30
31
32
33
34
35
36
37
38
39
40
41
42
43
44
45
46
47
48
49
50
51
52
53
54
55
56
57
58
59
60
61
62
63
64
65
66
67
68
69
70
71
72
73
74
75
76
77
78
79
80
81
82
83
84
85
86
87
88
89
90
91
92
93
94
95
96
97
98
99
100
101
102
103
104
105
106
107
108
109
110
111
112
113
114
115
116
117
118
119
120
121
122
123
124
125
126
127
128
129
130
131
132
133
134
135
136
137
138
139
140
141
142
143
144
145
146
147
148
149
150
151
152
153
154
155
156
157
158
159
160
161
162
163
164
165
166
167
168
169
170
171
172
173
174
175
176
177
178
179
180
181
182
183
184
185
186
187
188
189
190
191
192
193
194
195
196
197
198
199
200
201
202
203
204
205
206
207
208
209
210
211
212
213
214
215
216
217
218
219
220
221
222
223
224
225
226
227
228
229
230
231
232
233
234
235
236

