%nproc=8
%mem=1000MB
# rb3lyp/6-311+g** NMR geom=connectivity

Title

0 1
C    -4.0500558   -0.5771862    0.8136712
H    -5.0263804   -1.0082727    1.0024760
C    -3.9381552    0.6617804    0.2400876
H    -4.8252424    1.2338890   -0.0111295
C    -2.6768410    1.2433246    0.0057578
C    -1.4974121    0.5051527    0.2848253
C    -1.6508332   -0.7338728    0.9404026
H    -0.7713646   -1.2730967    1.2633753
C    -2.8898548   -1.2624035    1.1994307
H    -2.9683706   -2.2124563    1.7152676
C    -2.5773185    2.5963696   -0.4192930
H    -3.4870728    3.1412239   -0.6474055
C    -1.3741895    3.2147896   -0.4364030
H    -1.2997315    4.2742019   -0.6578144
C    -0.1719488    2.4994090   -0.1734588
C    -0.2043917    1.1018437    0.0192689
C     1.0513491    3.2042560   -0.0676222
H     1.0427344    4.2819499   -0.1896997
C     2.1942091    2.5487446    0.2579577
H     3.1168527    3.0912848    0.4334727
C     2.2216473    1.1336562    0.2934990
C     1.0486931    0.3945528    0.0302412
C     3.4483363    0.4614633    0.5573939
H     4.3095794    1.0606054    0.8334846
C     3.5427346   -0.8855926    0.4749463
H     4.4731467   -1.3939704    0.7038822
C     2.4490052   -1.6474447   -0.0196319
C     1.2150704   -1.0057258   -0.3013573
C     0.2531113   -1.7434440   -1.0216591
H    -0.6541356   -1.2535051   -1.3462847
C     0.4494193   -3.0628597   -1.3413779
H    -0.3083162   -3.5944309   -1.9054060
C     1.6251726   -3.7207967   -0.9552541
H     1.7670048   -4.7687404   -1.1927019
C     2.6109872   -3.0144177   -0.3183050
H     3.5525612   -3.4902813   -0.0646367
Bq         1.6847802425     1.5239330407     0.3736692225
Bq         1.5834485712     1.5583274363     1.0654415246
Bq         1.6992561956     1.5190195556     0.2748446079
Bq         1.5689726182     1.5632409214     1.1642661392
Bq         1.7137321486     1.5141060705     0.1760199934
Bq         1.6413523834     1.5386734959     0.6701430663
Bq         1.6275885643     1.6434661964     0.7641060761
Bq         1.6565404704     1.6336392262     0.5664568469
Bq         1.6131126112     1.6483796815     0.8629306907
Bq         1.6710164234     1.6287257412     0.4676322324
Bq         1.5986366582     1.6532931666     0.9617553053
Bq         1.6854923765     1.6238122561     0.3688076178
Bq         1.5841607052     1.6582066517     1.0605799199
Bq         1.6999683295     1.6188987710     0.2699830032
Bq         1.5696847521     1.6631201367     1.1594045344
Bq         1.7144442826     1.6139852859     0.1711583886
Bq         1.6420645173     1.6385527113     0.6652814615
Bq         1.6283006982     1.7433454118     0.7592444713
Bq         1.6572526043     1.7335184416     0.5615952422
Bq         1.6138247452     1.7482588969     0.8580690859
Bq         1.6717285574     1.7286049565     0.4627706276
Bq         1.5993487921     1.7531723819     0.9568937005
Bq         1.6862045104     1.7236914715     0.3639460130
Bq         1.5848728391     1.7580858670     1.0557183151
Bq         1.7006804634     1.7187779864     0.2651213984
Bq         1.5703968860     1.7629993521     1.1545429297
Bq         1.7151564165     1.7138645013     0.1662967838
Bq         1.6427766513     1.7384319267     0.6604198568
Bq         1.6290128322     1.8432246272     0.7543828666
Bq         1.6579647383     1.8333976570     0.5567336374
Bq         1.6145368791     1.8481381122     0.8532074812
Bq         1.6724406913     1.8284841719     0.4579090228
Bq         1.6000609261     1.8530515973     0.9520320957
Bq         1.6869166443     1.8235706868     0.3590844082
Bq         1.5855849730     1.8579650824     1.0508567103
Bq         1.7013925974     1.8186572017     0.2602597936
Bq         1.5711090200     1.8628785675     1.1496813249
Bq         1.7158685504     1.8137437167     0.1614351791
Bq         1.6434887852     1.8383111421     0.6555582520
Bq         1.6297249661     1.9431038425     0.7495212618
Bq         1.6586768722     1.9332768724     0.5518720326
Bq         1.6152490131     1.9480173276     0.8483458764
Bq         1.6731528252     1.9283633873     0.4530474181
Bq         1.6007730600     1.9529308127     0.9471704910
Bq         1.6876287783     1.9234499022     0.3542228035
Bq         1.5862971070     1.9578442978     1.0459951056
Bq         1.7021047313     1.9185364171     0.2553981889
Bq         1.5718211539     1.9627577829     1.1448197201
Bq         1.7165806844     1.9136229320     0.1565735743
Bq         1.6442009192     1.9381903575     0.6506966472
Bq         1.6304371001     2.0429830579     0.7446596570
Bq         1.6593890061     2.0331560878     0.5470104279
Bq         1.6159611470     2.0478965430     0.8434842716
Bq         1.6738649592     2.0282426027     0.4481858133
Bq         1.6014851940     2.0528100281     0.9423088862
Bq         1.6883409122     2.0233291176     0.3493611987
Bq         1.5870092409     2.0577235132     1.0411335008
Bq         1.7028168653     2.0184156325     0.2505365841
Bq         1.5725332879     2.0626369982     1.1399581154
Bq         1.7172928183     2.0135021474     0.1517119695
Bq         1.6449130531     2.0380695728     0.6458350425
Bq         1.6311492340     2.1428622733     0.7397980523
Bq         1.6601011401     2.1330353031     0.5421488231
Bq         1.6166732809     2.1477757584     0.8386226669
Bq         1.6745770931     2.1281218180     0.4433242085
Bq         1.6021973279     2.1526892435     0.9374472814
Bq         1.6890530462     2.1232083330     0.3444995939
Bq         1.5877213749     2.1576027285     1.0362718960
Bq         1.7035289992     2.1182948479     0.2456749793
Bq         1.5732454218     2.1625162136     1.1350965106
Bq         1.7180049523     2.1133813628     0.1468503648
Bq         1.6456251870     2.1379487882     0.6409734377
Bq         1.6318613679     2.2427414887     0.7349364475
Bq         1.6608132740     2.2329145185     0.5372872183
Bq         1.6173854149     2.2476549738     0.8337610621
Bq         1.6752892271     2.2280010334     0.4384626038
Bq         1.6029094618     2.2525684588     0.9325856767
Bq         1.6897651801     2.2230875483     0.3396379892
Bq         1.5884335088     2.2574819439     1.0314102913
Bq         1.7042411332     2.2181740633     0.2408133746
Bq         1.5739575558     2.2623954290     1.1302349058
Bq         1.7187170862     2.2132605782     0.1419887600
Bq         1.6463373210     2.2378280036     0.6361118329
Bq         1.6325735019     2.3426207040     0.7300748427
Bq         1.6615254080     2.3327937339     0.5324256136
Bq         1.6180975488     2.3475341891     0.8288994573
Bq         1.6760013610     2.3278802488     0.4336009990
Bq         1.6036215958     2.3524476742     0.9277240719
Bq         1.6904773141     2.3229667637     0.3347763844
Bq         1.5891456427     2.3573611593     1.0265486865
Bq         1.7049532671     2.3180532786     0.2359517698
Bq         1.5746696897     2.3622746444     1.1253733011
Bq         1.7194292201     2.3131397936     0.1371271552
Bq         1.6470494549     2.3377072190     0.6312502282
Bq         1.6332856358     2.4424999194     0.7252132380
Bq         1.6622375419     2.4326729493     0.5275640088
Bq         1.6188096828     2.4474134045     0.8240378526
Bq         1.6767134950     2.4277594642     0.4287393942
Bq         1.6043337297     2.4523268896     0.9228624671
Bq         1.6911894480     2.4228459791     0.3299147796
Bq         1.5898577767     2.4572403747     1.0216870817
Bq         1.7056654010     2.4179324940     0.2310901651
Bq         1.5753818236     2.4621538598     1.1205116963
Bq         1.7201413541     2.4130190089     0.1322655505
Bq         1.6477615889     2.4375864343     0.6263886234
Bq         1.6339977698     2.5423791348     0.7203516332
Bq         1.6629496758     2.5325521646     0.5227024040
Bq         1.6195218167     2.5472926199     0.8191762478
Bq         1.6774256289     2.5276386796     0.4238777895
Bq         1.6050458637     2.5522061050     0.9180008624
Bq         1.6919015819     2.5227251945     0.3250531749
Bq         1.5905699106     2.5571195900     1.0168254770
Bq         1.7063775350     2.5178117094     0.2262285603
Bq         1.5760939576     2.5620330751     1.1156500915
Bq         1.7208534880     2.5128982243     0.1274039457
Bq         1.6484737228     2.5374656497     0.6215270186
Bq         1.6347099037     2.6422583502     0.7154900284
Bq         1.6636618098     2.6324313800     0.5178407993
Bq         1.6202339507     2.6471718353     0.8143146430
Bq         1.6781377628     2.6275178949     0.4190161847
Bq         1.6057579976     2.6520853203     0.9131392576
Bq         1.6926137159     2.6226044098     0.3201915701
Bq         1.5912820446     2.6569988054     1.0119638722
Bq         1.7070896689     2.6176909248     0.2213669555
Bq         1.5768060915     2.6619122905     1.1107884868
Bq         1.7215656220     2.6127774397     0.1225423409
Bq         1.6491858567     2.6373448651     0.6166654139
Bq         1.6354220376     2.7421375656     0.7106284237
Bq         1.6643739437     2.7323105954     0.5129791945
Bq         1.6209460846     2.7470510506     0.8094530383
Bq         1.6788498968     2.7273971103     0.4141545799
Bq         1.6064701316     2.7519645357     0.9082776528
Bq         1.6933258498     2.7224836252     0.3153299653
Bq         1.5919941785     2.7568780208     1.0071022674
Bq         1.7078018029     2.7175701401     0.2165053508
Bq         1.5775182255     2.7617915059     1.1059268820
Bq         1.7222777559     2.7126566551     0.1176807362
Bq         1.6498979907     2.7372240805     0.6118038091
Bq         1.6361341716     2.8420167809     0.7057668189
Bq         1.6650860777     2.8321898108     0.5081175897
Bq         1.6216582185     2.8469302660     0.8045914335
Bq         1.6795620307     2.8272763257     0.4092929752
Bq         1.6071822655     2.8518437511     0.9034160481
Bq         1.6940379838     2.8223628406     0.3104683606
Bq         1.5927063125     2.8567572362     1.0022406627
Bq         1.7085139368     2.8174493555     0.2116437460
Bq         1.5782303594     2.8616707213     1.1010652772
Bq         1.7229898899     2.8125358704     0.1128191314
Bq         1.6506101246     2.8371032959     0.6069422043
Bq         1.6368463055     2.9418959963     0.7009052141
Bq         1.6657982116     2.9320690261     0.5032559850
Bq         1.6223703525     2.9468094814     0.7997298287
Bq         1.6802741647     2.9271555411     0.4044313704
Bq         1.6078943994     2.9517229665     0.8985544433
Bq         1.6947501177     2.9222420560     0.3056067558
Bq         1.5934184464     2.9566364516     0.9973790579
Bq         1.7092260707     2.9173285709     0.2067821412
Bq         1.5789424933     2.9615499366     1.0962036725
Bq         1.7237020238     2.9124150858     0.1079575266
Bq         1.6513222586     2.9369825112     0.6020805996
Bq         1.6375584395     3.0417752117     0.6960436094
Bq         1.6665103456     3.0319482415     0.4983943802
Bq         1.6230824864     3.0466886968     0.7948682240
Bq         1.6809862986     3.0270347564     0.3995697656
Bq         1.6086065334     3.0516021819     0.8936928385
Bq         1.6954622516     3.0221212714     0.3007451510
Bq         1.5941305803     3.0565156669     0.9925174531
Bq         1.7099382047     3.0172077863     0.2019205365
Bq         1.5796546273     3.0614291520     1.0913420677
Bq         1.7244141577     3.0122943012     0.1030959219
Bq         1.6520343925     3.0368617266     0.5972189948
Bq         1.6382705734     3.1416544271     0.6911820046
Bq         1.6672224795     3.1318274569     0.4935327754
Bq         1.6237946204     3.1465679121     0.7900066192
Bq         1.6816984325     3.1269139718     0.3947081609
Bq         1.6093186673     3.1514813972     0.8888312338
Bq         1.6961743856     3.1220004867     0.2958835463
Bq         1.5948427143     3.1563948823     0.9876558484
Bq         1.7106503386     3.1170870017     0.1970589317
Bq         1.5803667612     3.1613083674     1.0864804629
Bq         1.7251262917     3.1121735166     0.0982343171
Bq         1.6527465265     3.1367409420     0.5923573900
Bq         1.6389827074     3.2415336424     0.6863203998
Bq         1.6679346134     3.2317066723     0.4886711707
Bq         1.6245067543     3.2464471275     0.7851450144
Bq         1.6824105665     3.2267931872     0.3898465561
Bq         1.6100308013     3.2513606126     0.8839696290
Bq         1.6968865195     3.2218797021     0.2910219415
Bq         1.5955548482     3.2562740977     0.9827942436
Bq         1.7113624726     3.2169662170     0.1921973269
Bq         1.5810788952     3.2611875828     1.0816188582
Bq         1.7258384256     3.2120527319     0.0933727123
Bq         1.6534586604     3.2366201574     0.5874957853
Bq         1.6396948413     3.3414128578     0.6814587951
Bq         1.6686467474     3.3315858877     0.4838095659
Bq         1.6252188882     3.3463263429     0.7802834097
Bq         1.6831227004     3.3266724026     0.3849849513
Bq         1.6107429352     3.3512398280     0.8791080242
Bq         1.6975986535     3.3217589175     0.2861603367
Bq         1.5962669822     3.3561533131     0.9779326388

1
2
3
4
5
6
7
8
9
10
11
12
13
14
15
16
17
18
19
20
21
22
23
24
25
26
27
28
29
30
31
32
33
34
35
36
37
38
39
40
41
42
43
44
45
46
47
48
49
50
51
52
53
54
55
56
57
58
59
60
61
62
63
64
65
66
67
68
69
70
71
72
73
74
75
76
77
78
79
80
81
82
83
84
85
86
87
88
89
90
91
92
93
94
95
96
97
98
99
100
101
102
103
104
105
106
107
108
109
110
111
112
113
114
115
116
117
118
119
120
121
122
123
124
125
126
127
128
129
130
131
132
133
134
135
136
137
138
139
140
141
142
143
144
145
146
147
148
149
150
151
152
153
154
155
156
157
158
159
160
161
162
163
164
165
166
167
168
169
170
171
172
173
174
175
176
177
178
179
180
181
182
183
184
185
186
187
188
189
190
191
192
193
194
195
196
197
198
199
200
201
202
203
204
205
206
207
208
209
210
211
212
213
214
215
216
217
218
219
220
221
222
223
224
225
226
227
228
229
230
231
232
233
234
235
236

