%nproc=8
%mem=1000MB
# rb3lyp/6-311+g** NMR geom=connectivity

Title

0 1
C    -4.0500558   -0.5771862    0.8136712
H    -5.0263804   -1.0082727    1.0024760
C    -3.9381552    0.6617804    0.2400876
H    -4.8252424    1.2338890   -0.0111295
C    -2.6768410    1.2433246    0.0057578
C    -1.4974121    0.5051527    0.2848253
C    -1.6508332   -0.7338728    0.9404026
H    -0.7713646   -1.2730967    1.2633753
C    -2.8898548   -1.2624035    1.1994307
H    -2.9683706   -2.2124563    1.7152676
C    -2.5773185    2.5963696   -0.4192930
H    -3.4870728    3.1412239   -0.6474055
C    -1.3741895    3.2147896   -0.4364030
H    -1.2997315    4.2742019   -0.6578144
C    -0.1719488    2.4994090   -0.1734588
C    -0.2043917    1.1018437    0.0192689
C     1.0513491    3.2042560   -0.0676222
H     1.0427344    4.2819499   -0.1896997
C     2.1942091    2.5487446    0.2579577
H     3.1168527    3.0912848    0.4334727
C     2.2216473    1.1336562    0.2934990
C     1.0486931    0.3945528    0.0302412
C     3.4483363    0.4614633    0.5573939
H     4.3095794    1.0606054    0.8334846
C     3.5427346   -0.8855926    0.4749463
H     4.4731467   -1.3939704    0.7038822
C     2.4490052   -1.6474447   -0.0196319
C     1.2150704   -1.0057258   -0.3013573
C     0.2531113   -1.7434440   -1.0216591
H    -0.6541356   -1.2535051   -1.3462847
C     0.4494193   -3.0628597   -1.3413779
H    -0.3083162   -3.5944309   -1.9054060
C     1.6251726   -3.7207967   -0.9552541
H     1.7670048   -4.7687404   -1.1927019
C     2.6109872   -3.0144177   -0.3183050
H     3.5525612   -3.4902813   -0.0646367
Bq        -0.5895771020    -1.8809692464     2.0396924016
Bq        -0.5897601653    -1.7474351367     2.0862607174
Bq        -0.5890521741    -1.8344005707     1.9061593236
Bq        -0.5901141608    -1.7039524197     2.1763114143
Bq        -0.5886981785    -1.8778832877     1.8161086268
Bq        -0.5904681564    -1.6604697027     2.2663621112
Bq        -0.5883441830    -1.9213660047     1.7260579299
Bq        -0.5908221520    -1.6169869857     2.3564128081
Bq        -0.5879901874    -1.9648487217     1.6360072330
Bq        -0.5911761476    -1.5735042687     2.4464635049
Bq        -0.5876361918    -2.0083314388     1.5459565361
Bq        -0.5894061697    -1.7909178537     1.9962100205
Bq        -0.5895892330    -1.6573837441     2.0427783364
Bq        -0.5888812418    -1.7443491781     1.8626769426
Bq        -0.5899432286    -1.6139010270     2.1328290333
Bq        -0.5885272463    -1.7878318951     1.7726262457
Bq        -0.5902972241    -1.5704183100     2.2228797301
Bq        -0.5881732507    -1.8313146121     1.6825755488
Bq        -0.5906512197    -1.5269355930     2.3129304270
Bq        -0.5878192551    -1.8747973291     1.5925248520
Bq        -0.5910052153    -1.4834528760     2.4029811239
Bq        -0.5874652595    -1.9182800461     1.5024741551
Bq        -0.5892352374    -1.7008664611     1.9527276395
Bq        -0.5894183007    -1.5673323514     1.9992959553
Bq        -0.5887103096    -1.6542977854     1.8191945616
Bq        -0.5897722963    -1.5238496344     2.0893466522
Bq        -0.5883563140    -1.6977805024     1.7291438647
Bq        -0.5901262919    -1.4803669174     2.1793973491
Bq        -0.5880023184    -1.7412632194     1.6390931678
Bq        -0.5904802874    -1.4368842004     2.2694480460
Bq        -0.5876483228    -1.7847459364     1.5490424709
Bq        -0.5908342830    -1.3934014834     2.3594987429
Bq        -0.5872943273    -1.8282286534     1.4589917740
Bq        -0.5890643051    -1.6108150684     1.9092452585
Bq        -0.5892473684    -1.4772809587     1.9558135743
Bq        -0.5885393773    -1.5642463927     1.7757121805
Bq        -0.5896013640    -1.4337982417     2.0458642712
Bq        -0.5881853817    -1.6077291097     1.6856614837
Bq        -0.5899553596    -1.3903155247     2.1359149681
Bq        -0.5878313861    -1.6512118267     1.5956107868
Bq        -0.5903093552    -1.3468328077     2.2259656650
Bq        -0.5874773906    -1.6946945437     1.5055600899
Bq        -0.5906633507    -1.3033500907     2.3160163618
Bq        -0.5871233950    -1.7381772607     1.4155093930
Bq        -0.5888933729    -1.5207636757     1.8657628774
Bq        -0.5890764362    -1.3872295660     1.9123311933
Bq        -0.5883684450    -1.4741950001     1.7322297995
Bq        -0.5894304317    -1.3437468490     2.0023818902
Bq        -0.5880144494    -1.5176777171     1.6421791026
Bq        -0.5897844273    -1.3002641320     2.0924325870
Bq        -0.5876604539    -1.5611604341     1.5521284057
Bq        -0.5901384229    -1.2567814150     2.1824832839
Bq        -0.5873064583    -1.6046431511     1.4620777089
Bq        -0.5904924185    -1.2132986980     2.2725339808
Bq        -0.5869524627    -1.6481258681     1.3720270120
Bq        -0.5887224406    -1.4307122830     1.8222804964
Bq        -0.5889055039    -1.2971781734     1.8688488122
Bq        -0.5881975127    -1.3841436074     1.6887474185
Bq        -0.5892594995    -1.2536954564     1.9588995091
Bq        -0.5878435172    -1.4276263244     1.5986967216
Bq        -0.5896134950    -1.2102127394     2.0489502060
Bq        -0.5874895216    -1.4711090414     1.5086460247
Bq        -0.5899674906    -1.1667300224     2.1390009029
Bq        -0.5871355260    -1.5145917584     1.4185953278
Bq        -0.5903214862    -1.1232473054     2.2290515998
Bq        -0.5867815304    -1.5580744754     1.3285446309
Bq        -0.5885515083    -1.3406608904     1.7787981154
Bq        -0.5887345716    -1.2071267807     1.8253664312
Bq        -0.5880265805    -1.2940922147     1.6452650374
Bq        -0.5890885672    -1.1636440637     1.9154171281
Bq        -0.5876725849    -1.3375749317     1.5552143406
Bq        -0.5894425628    -1.1201613467     2.0054678250
Bq        -0.5873185893    -1.3810576487     1.4651636437
Bq        -0.5897965583    -1.0766786297     2.0955185219
Bq        -0.5869645937    -1.4245403657     1.3751129468
Bq        -0.5901505539    -1.0331959127     2.1855692187
Bq        -0.5866105982    -1.4680230827     1.2850622499
Bq        -0.5883805760    -1.2506094977     1.7353157343
Bq        -0.5885636393    -1.1170753880     1.7818840502
Bq        -0.5878556482    -1.2040408220     1.6017826564
Bq        -0.5889176349    -1.0735926710     1.8719347471
Bq        -0.5875016526    -1.2475235390     1.5117319595
Bq        -0.5892716305    -1.0301099540     1.9619854439
Bq        -0.5871476570    -1.2910062560     1.4216812626
Bq        -0.5896256261    -0.9866272370     2.0520361408
Bq        -0.5867936615    -1.3344889731     1.3316305658
Bq        -0.5899796216    -0.9431445200     2.1420868377
Bq        -0.5864396659    -1.3779716901     1.2415798689
Bq        -0.5882096438    -1.1605581050     1.6918333533
Bq        -0.5883927071    -1.0270239954     1.7384016691
Bq        -0.5876847159    -1.1139894294     1.5583002754
Bq        -0.5887467026    -0.9835412784     1.8284523660
Bq        -0.5873307203    -1.1574721464     1.4682495785
Bq        -0.5891006982    -0.9400585614     1.9185030629
Bq        -0.5869767248    -1.2009548634     1.3781988816
Bq        -0.5894546938    -0.8965758443     2.0085537598
Bq        -0.5866227292    -1.2444375804     1.2881481847
Bq        -0.5898086894    -0.8530931273     2.0986044567
Bq        -0.5862687336    -1.2879202974     1.1980974878
Bq        -0.5880387115    -1.0705067124     1.6483509723
Bq        -0.5882217748    -0.9369726027     1.6949192881
Bq        -0.5875137836    -1.0239380367     1.5148178943
Bq        -0.5885757704    -0.8934898857     1.7849699850
Bq        -0.5871597881    -1.0674207537     1.4247671975
Bq        -0.5889297659    -0.8500071687     1.8750206819
Bq        -0.5868057925    -1.1109034707     1.3347165006
Bq        -0.5892837615    -0.8065244517     1.9650713788
Bq        -0.5864517969    -1.1543861877     1.2446658037
Bq        -0.5896377571    -0.7630417347     2.0551220756
Bq        -0.5860978013    -1.1978689047     1.1546151068
Bq        -0.5878677792    -0.9804553197     1.6048685912
Bq        -0.5880508425    -0.8469212100     1.6514369071
Bq        -0.5873428514    -0.9338866440     1.4713355133
Bq        -0.5884048381    -0.8034384930     1.7414876040
Bq        -0.5869888558    -0.9773693610     1.3812848164
Bq        -0.5887588337    -0.7599557760     1.8315383008
Bq        -0.5866348602    -1.0208520780     1.2912341195
Bq        -0.5891128292    -0.7164730590     1.9215889977
Bq        -0.5862808646    -1.0643347950     1.2011834227
Bq        -0.5894668248    -0.6729903420     2.0116396946
Bq        -0.5859268691    -1.1078175120     1.1111327258
Bq        -0.5876968469    -0.8904039270     1.5613862102
Bq        -0.5878799102    -0.7568698173     1.6079545260
Bq        -0.5871719191    -0.8438352514     1.4278531323
Bq        -0.5882339058    -0.7133871003     1.6980052229
Bq        -0.5868179235    -0.8873179684     1.3378024354
Bq        -0.5885879014    -0.6699043833     1.7880559198
Bq        -0.5864639279    -0.9308006854     1.2477517385
Bq        -0.5889418970    -0.6264216663     1.8781066167
Bq        -0.5861099324    -0.9742834024     1.1577010416
Bq        -0.5892958925    -0.5829389493     1.9681573136
Bq        -0.5857559368    -1.0177661194     1.0676503448
Bq        -0.5875259147    -0.8003525344     1.5179038292
Bq        -0.5877089780    -0.6668184247     1.5644721450
Bq        -0.5870009868    -0.7537838587     1.3843707513
Bq        -0.5880629735    -0.6233357077     1.6545228419
Bq        -0.5866469912    -0.7972665757     1.2943200544
Bq        -0.5884169691    -0.5798529907     1.7445735388
Bq        -0.5862929957    -0.8407492927     1.2042693575
Bq        -0.5887709647    -0.5363702737     1.8346242357
Bq        -0.5859390001    -0.8842320097     1.1142186606
Bq        -0.5891249603    -0.4928875567     1.9246749325
Bq        -0.5855850045    -0.9277147267     1.0241679637
Bq        -0.5873549824    -0.7103011417     1.4744214481
Bq        -0.5875380457    -0.5767670320     1.5209897640
Bq        -0.5868300545    -0.6637324660     1.3408883702
Bq        -0.5878920413    -0.5332843150     1.6110404609
Bq        -0.5864760590    -0.7072151830     1.2508376733
Bq        -0.5882460368    -0.4898015980     1.7010911577
Bq        -0.5861220634    -0.7506979000     1.1607869765
Bq        -0.5886000324    -0.4463188810     1.7911418546
Bq        -0.5857680678    -0.7941806170     1.0707362796
Bq        -0.5889540280    -0.4028361640     1.8811925515
Bq        -0.5854140722    -0.8376633340     0.9806855827
Bq        -0.5871840501    -0.6202497490     1.4309390671
Bq        -0.5873671134    -0.4867156393     1.4775073830
Bq        -0.5866591223    -0.5736810733     1.2974059892
Bq        -0.5877211090    -0.4432329223     1.5675580798
Bq        -0.5863051267    -0.6171637904     1.2073552923
Bq        -0.5880751046    -0.3997502053     1.6576087767
Bq        -0.5859511311    -0.6606465074     1.1173045954
Bq        -0.5884291001    -0.3562674883     1.7476594736
Bq        -0.5855971355    -0.7041292244     1.0272538985
Bq        -0.5887830957    -0.3127847713     1.8377101705
Bq        -0.5852431400    -0.7476119414     0.9372032017
Bq        -0.5870131178    -0.5301983563     1.3874566861
Bq        -0.5871961811    -0.3966642467     1.4340250019
Bq        -0.5864881900    -0.4836296807     1.2539236082
Bq        -0.5875501767    -0.3531815297     1.5240756988
Bq        -0.5861341944    -0.5271123977     1.1638729113
Bq        -0.5879041723    -0.3096988127     1.6141263957
Bq        -0.5857801988    -0.5705951147     1.0738222144
Bq        -0.5882581679    -0.2662160957     1.7041770926
Bq        -0.5854262033    -0.6140778317     0.9837715175
Bq        -0.5886121634    -0.2227333786     1.7942277894
Bq        -0.5850722077    -0.6575605487     0.8937208206
Bq        -0.5868421856    -0.4401469637     1.3439743050
Bq        -0.5870252489    -0.3066128540     1.3905426209
Bq        -0.5863172577    -0.3935782880     1.2104412271
Bq        -0.5873792444    -0.2631301370     1.4805933178
Bq        -0.5859632621    -0.4370610050     1.1203905302
Bq        -0.5877332400    -0.2196474200     1.5706440147
Bq        -0.5856092666    -0.4805437220     1.0303398334
Bq        -0.5880872356    -0.1761647030     1.6606947115
Bq        -0.5852552710    -0.5240264390     0.9402891365
Bq        -0.5884412312    -0.1326819860     1.7507454084
Bq        -0.5849012754    -0.5675091560     0.8502384396
Bq        -0.5866712533    -0.3500955710     1.3004919240
Bq        -0.5868543166    -0.2165614613     1.3470602399
Bq        -0.5861463254    -0.3035268953     1.1669588461
Bq        -0.5872083122    -0.1730787443     1.4371109367
Bq        -0.5857923299    -0.3470096123     1.0769081492
Bq        -0.5875623077    -0.1295960273     1.5271616336
Bq        -0.5854383343    -0.3904923293     0.9868574523
Bq        -0.5879163033    -0.0861133103     1.6172123305
Bq        -0.5850843387    -0.4339750463     0.8968067554
Bq        -0.5882702989    -0.0426305933     1.7072630274
Bq        -0.5847303432    -0.4774577634     0.8067560586
Bq        -0.5865003210    -0.2600441783     1.2570095430
Bq        -0.5866833843    -0.1265100687     1.3035778588

1
2
3
4
5
6
7
8
9
10
11
12
13
14
15
16
17
18
19
20
21
22
23
24
25
26
27
28
29
30
31
32
33
34
35
36
37
38
39
40
41
42
43
44
45
46
47
48
49
50
51
52
53
54
55
56
57
58
59
60
61
62
63
64
65
66
67
68
69
70
71
72
73
74
75
76
77
78
79
80
81
82
83
84
85
86
87
88
89
90
91
92
93
94
95
96
97
98
99
100
101
102
103
104
105
106
107
108
109
110
111
112
113
114
115
116
117
118
119
120
121
122
123
124
125
126
127
128
129
130
131
132
133
134
135
136
137
138
139
140
141
142
143
144
145
146
147
148
149
150
151
152
153
154
155
156
157
158
159
160
161
162
163
164
165
166
167
168
169
170
171
172
173
174
175
176
177
178
179
180
181
182
183
184
185
186
187
188
189
190
191
192
193
194
195
196
197
198
199
200
201
202
203
204
205
206
207
208
209
210
211
212
213
214
215
216
217
218
219
220
221
222
223
224
225
226
227
228
229
230
231
232
233
234
235
236

