%nproc=8
%mem=1000MB
# rb3lyp/6-311+g** NMR geom=connectivity

Title

0 1
C    -4.0500558   -0.5771862    0.8136712
H    -5.0263804   -1.0082727    1.0024760
C    -3.9381552    0.6617804    0.2400876
H    -4.8252424    1.2338890   -0.0111295
C    -2.6768410    1.2433246    0.0057578
C    -1.4974121    0.5051527    0.2848253
C    -1.6508332   -0.7338728    0.9404026
H    -0.7713646   -1.2730967    1.2633753
C    -2.8898548   -1.2624035    1.1994307
H    -2.9683706   -2.2124563    1.7152676
C    -2.5773185    2.5963696   -0.4192930
H    -3.4870728    3.1412239   -0.6474055
C    -1.3741895    3.2147896   -0.4364030
H    -1.2997315    4.2742019   -0.6578144
C    -0.1719488    2.4994090   -0.1734588
C    -0.2043917    1.1018437    0.0192689
C     1.0513491    3.2042560   -0.0676222
H     1.0427344    4.2819499   -0.1896997
C     2.1942091    2.5487446    0.2579577
H     3.1168527    3.0912848    0.4334727
C     2.2216473    1.1336562    0.2934990
C     1.0486931    0.3945528    0.0302412
C     3.4483363    0.4614633    0.5573939
H     4.3095794    1.0606054    0.8334846
C     3.5427346   -0.8855926    0.4749463
H     4.4731467   -1.3939704    0.7038822
C     2.4490052   -1.6474447   -0.0196319
C     1.2150704   -1.0057258   -0.3013573
C     0.2531113   -1.7434440   -1.0216591
H    -0.6541356   -1.2535051   -1.3462847
C     0.4494193   -3.0628597   -1.3413779
H    -0.3083162   -3.5944309   -1.9054060
C     1.6251726   -3.7207967   -0.9552541
H     1.7670048   -4.7687404   -1.1927019
C     2.6109872   -3.0144177   -0.3183050
H     3.5525612   -3.4902813   -0.0646367
Bq         0.2568489537     3.4627990209     0.5727079546
Bq         0.2952687670     3.2173058471    -0.3959287263
Bq         0.2760588603     3.3400524340     0.0883896142
Bq         0.2731898332     3.4615415833     0.1607232528
Bq         0.2808737959     3.4124429486    -0.0330040834
Bq         0.2693478519     3.4860909007     0.2575869209
Bq         0.2847157772     3.3878936312    -0.1298677514
Bq         0.2655058706     3.5106402181     0.3544505890
Bq         0.2885577585     3.3633443138    -0.2267314195
Bq         0.2616638892     3.5351895355     0.4513142571
Bq         0.2923997399     3.3387949965    -0.3235950876
Bq         0.2578219079     3.5597388528     0.5481779252
Bq         0.2962417212     3.3142456791    -0.4204587557
Bq         0.2770318145     3.4369922660     0.0638595847
Bq         0.2741627874     3.5584814153     0.1361932234
Bq         0.2818467501     3.5093827805    -0.0575341128
Bq         0.2703208061     3.5830307327     0.2330568915
Bq         0.2856887314     3.4848334632    -0.1543977809
Bq         0.2664788248     3.6075800500     0.3299205596
Bq         0.2895307128     3.4602841458    -0.2512614490
Bq         0.2626368435     3.6321293674     0.4267842277
Bq         0.2933726941     3.4357348284    -0.3481251171
Bq         0.2587948621     3.6566786848     0.5236478958
Bq         0.2972146754     3.4111855110    -0.4449887851
Bq         0.2780047688     3.5339320979     0.0393295553
Bq         0.2751357417     3.6554212472     0.1116631940
Bq         0.2828197043     3.6063226125    -0.0820641422
Bq         0.2712937603     3.6799705646     0.2085268621
Bq         0.2866616857     3.5817732951    -0.1789278103
Bq         0.2674517790     3.7045198820     0.3053905301
Bq         0.2905036670     3.5572239777    -0.2757914784
Bq         0.2636097977     3.7290691993     0.4022541982
Bq         0.2943456483     3.5326746603    -0.3726551465
Bq         0.2597678164     3.7536185167     0.4991178663
Bq         0.2981876296     3.5081253430    -0.4695188146
Bq         0.2789777230     3.6308719298     0.0147995259
Bq         0.2761086959     3.7523610792     0.0871331645
Bq         0.2837926585     3.7032624444    -0.1065941716
Bq         0.2722667146     3.7769103965     0.1839968326
Bq         0.2876346399     3.6787131270    -0.2034578397
Bq         0.2684247332     3.8014597139     0.2808605007
Bq         0.2914766212     3.6541638097    -0.3003215078
Bq         0.2645827519     3.8260090313     0.3777241688
Bq         0.2953186025     3.6296144923    -0.3971851759
Bq         0.2607407706     3.8505583487     0.4745878369
Bq         0.2991605839     3.6050651749    -0.4940488440
Bq         0.2799506772     3.7278117618    -0.0097305035
Bq         0.2770816501     3.8493009111     0.0626031351
Bq         0.2847656128     3.8002022763    -0.1311242011
Bq         0.2732396688     3.8738502285     0.1594668032
Bq         0.2886075941     3.7756529590    -0.2279878692
Bq         0.2693976875     3.8983995458     0.2563304713
Bq         0.2924495754     3.7511036416    -0.3248515372
Bq         0.2655557061     3.9229488632     0.3531941394
Bq         0.2962915568     3.7265543242    -0.4217152053
Bq         0.2617137248     3.9474981806     0.4500578075
Bq         0.3001335381     3.7020050068    -0.5185788734
Bq         0.2809236314     3.8247515937    -0.0342605330
Bq         0.2780546043     3.9462407430     0.0380731057
Bq         0.2857385670     3.8971421083    -0.1556542305
Bq         0.2742126230     3.9707900604     0.1349367738
Bq         0.2895805483     3.8725927909    -0.2525178986
Bq         0.2703706417     3.9953393778     0.2318004419
Bq         0.2934225297     3.8480434735    -0.3493815667
Bq         0.2665286604     4.0198886952     0.3286641100
Bq         0.2972645110     3.8234941562    -0.4462452348
Bq         0.2626866790     4.0444380125     0.4255277780
Bq         0.3011064923     3.7989448388    -0.5431089029
Bq         0.2818965857     3.9216914257    -0.0587905624
Bq         0.2790275586     4.0431805750     0.0135430763
Bq         0.2867115212     3.9940819402    -0.1801842599
Bq         0.2751855772     4.0677298924     0.1104067443
Bq         0.2905535026     3.9695326228    -0.2770479280
Bq         0.2713435959     4.0922792097     0.2072704124
Bq         0.2943954839     3.9449833055    -0.3739115961
Bq         0.2675016146     4.1168285271     0.3041340805
Bq         0.2982374652     3.9204339881    -0.4707752642
Bq         0.2636596332     4.1413778445     0.4009977486
Bq         0.3020794465     3.8958846707    -0.5676389323
Bq         0.2828695399     4.0186312576    -0.0833205918
Bq         0.2800005128     4.1401204069    -0.0109869532
Bq         0.2876844754     4.0910217722    -0.2047142893
Bq         0.2761585315     4.1646697243     0.0858767149
Bq         0.2915264568     4.0664724548    -0.3015779574
Bq         0.2723165501     4.1892190417     0.1827403830
Bq         0.2953684381     4.0419231374    -0.3984416255
Bq         0.2684745688     4.2137683590     0.2796040511
Bq         0.2992104194     4.0173738200    -0.4953052936
Bq         0.2646325875     4.2383176764     0.3764677192
Bq         0.3030524008     3.9928245027    -0.5921689617
Bq         0.2838424941     4.1155710895    -0.1078506213
Bq         0.2809734670     4.2370602389    -0.0355169826
Bq         0.2886574297     4.1879616041    -0.2292443188
Bq         0.2771314857     4.2616095562     0.0613466855
Bq         0.2924994110     4.1634122867    -0.3261079869
Bq         0.2732895044     4.2861588736     0.1582103536
Bq         0.2963413923     4.1388629694    -0.4229716550
Bq         0.2694475230     4.3107081910     0.2550740217
Bq         0.3001833737     4.1143136520    -0.5198353230
Bq         0.2656055417     4.3352575084     0.3519376898
Bq         0.3040253550     4.0897643346    -0.6166989911
Bq         0.2848154483     4.2125109215    -0.1323806507
Bq         0.2819464212     4.3340000708    -0.0600470120
Bq         0.2896303839     4.2849014360    -0.2537743482
Bq         0.2781044399     4.3585493882     0.0368166561
Bq         0.2934723652     4.2603521187    -0.3506380163
Bq         0.2742624586     4.3830987055     0.1336803242
Bq         0.2973143466     4.2358028013    -0.4475016844
Bq         0.2704204773     4.4076480229     0.2305439922
Bq         0.3011563279     4.2112534839    -0.5443653525
Bq         0.2665784959     4.4321973403     0.3274076603
Bq         0.3049983092     4.1867041665    -0.6412290206
Bq         0.2857884026     4.3094507534    -0.1569106801
Bq         0.2829193755     4.4309399027    -0.0845770414
Bq         0.2906033381     4.3818412680    -0.2783043776
Bq         0.2790773941     4.4554892201     0.0122866266
Bq         0.2944453194     4.3572919506    -0.3751680457
Bq         0.2752354128     4.4800385375     0.1091502947
Bq         0.2982873008     4.3327426332    -0.4720317138
Bq         0.2713934315     4.5045878549     0.2060139628
Bq         0.3021292821     4.3081933159    -0.5688953819
Bq         0.2675514501     4.5291371722     0.3028776309
Bq         0.3059712634     4.2836439985    -0.6657590500
Bq         0.2867613568     4.4063905854    -0.1814407095
Bq         0.3341930961    -0.4160516942     1.1458876938
Bq         0.3418770587    -0.4651503290     0.9521603576
Bq         0.3303511147    -0.3915023768     1.2427513619
Bq         0.3457190401    -0.4896996464     0.8552966895
Bq         0.3265091334    -0.3669530595     1.3396150300
Bq         0.3495610214    -0.5142489637     0.7584330214
Bq         0.3226671521    -0.3424037421     1.4364786980
Bq         0.3534030027    -0.5387982811     0.6615693533
Bq         0.3188251708    -0.3178544247     1.5333423661
Bq         0.3572449840    -0.5633475985     0.5647056852
Bq         0.3380350774    -0.4406010116     1.0490240257
Bq         0.3351660503    -0.3191118623     1.1213576643
Bq         0.3428500130    -0.3682104970     0.9276303282
Bq         0.3313240690    -0.2945625449     1.2182213324
Bq         0.3466919943    -0.3927598144     0.8307666601
Bq         0.3274820876    -0.2700132275     1.3150850005
Bq         0.3505339756    -0.4173091318     0.7339029920
Bq         0.3236401063    -0.2454639102     1.4119486686
Bq         0.3543759569    -0.4418584492     0.6370393239
Bq         0.3197981250    -0.2209145928     1.5088123367
Bq         0.3582179383    -0.4664077665     0.5401756558
Bq         0.3390080316    -0.3436611797     1.0244939963
Bq         0.3361390045    -0.2221720303     1.0968276349
Bq         0.3438229672    -0.2712706651     0.9031002987
Bq         0.3322970232    -0.1976227130     1.1936913030
Bq         0.3476649485    -0.2958199825     0.8062366306
Bq         0.3284550419    -0.1730733956     1.2905549711
Bq         0.3515069298    -0.3203692998     0.7093729626
Bq         0.3246130605    -0.1485240782     1.3874186392
Bq         0.3553489112    -0.3449186172     0.6125092945
Bq         0.3207710792    -0.1239747608     1.4842823073
Bq         0.3591908925    -0.3694679346     0.5156456264
Bq         0.3399809859    -0.2467213477     0.9999639668
Bq         0.3371119587    -0.1252321984     1.0722976055
Bq         0.3447959214    -0.1743308332     0.8785702693
Bq         0.3332699774    -0.1006828810     1.1691612736
Bq         0.3486379027    -0.1988801505     0.7817066012
Bq         0.3294279961    -0.0761335637     1.2660249417
Bq         0.3524798841    -0.2234294679     0.6848429331
Bq         0.3255860148    -0.0515842463     1.3628886098
Bq         0.3563218654    -0.2479787853     0.5879792650
Bq         0.3217440334    -0.0270349289     1.4597522779
Bq         0.3601638467    -0.2725281027     0.4911155970
Bq         0.3409539401    -0.1497815158     0.9754339374
Bq         0.3380849130    -0.0282923665     1.0477675761
Bq         0.3457688756    -0.0773910012     0.8540402399
Bq         0.3342429316    -0.0037430491     1.1446312442
Bq         0.3496108570    -0.1019403186     0.7571765718
Bq         0.3304009503     0.0208062683     1.2414949122
Bq         0.3534528383    -0.1264896360     0.6603129037
Bq         0.3265589690     0.0453555857     1.3383585803
Bq         0.3572948196    -0.1510389533     0.5634492356
Bq         0.3227169877     0.0699049030     1.4352222484
Bq         0.3611368009    -0.1755882707     0.4665855675
Bq         0.3419268943    -0.0528416838     0.9509039080
Bq         0.3390578672     0.0686474655     1.0232375466
Bq         0.3467418299     0.0195488307     0.8295102105
Bq         0.3352158859     0.0931967828     1.1201012147
Bq         0.3505838112    -0.0050004867     0.7326465424
Bq         0.3313739045     0.1177461002     1.2169648828
Bq         0.3544257925    -0.0295498040     0.6357828743
Bq         0.3275319232     0.1422954176     1.3138285509
Bq         0.3582677738    -0.0540991214     0.5389192062
Bq         0.3236899419     0.1668447350     1.4106922190
Bq         0.3621097552    -0.0786484388     0.4420555381
Bq         0.3428998485     0.0440981481     0.9263738785
Bq         0.3400308214     0.1655872974     0.9987075172
Bq         0.3477147841     0.1164886627     0.8049801810
Bq         0.3361888401     0.1901366148     1.0955711853
Bq         0.3515567654     0.0919393453     0.7081165129
Bq         0.3323468588     0.2146859322     1.1924348534
Bq         0.3553987467     0.0673900279     0.6112528448
Bq         0.3285048774     0.2392352495     1.2892985215
Bq         0.3592407281     0.0428407105     0.5143891768
Bq         0.3246628961     0.2637845669     1.3861621896
Bq         0.3630827094     0.0182913932     0.4175255087

1
2
3
4
5
6
7
8
9
10
11
12
13
14
15
16
17
18
19
20
21
22
23
24
25
26
27
28
29
30
31
32
33
34
35
36
37
38
39
40
41
42
43
44
45
46
47
48
49
50
51
52
53
54
55
56
57
58
59
60
61
62
63
64
65
66
67
68
69
70
71
72
73
74
75
76
77
78
79
80
81
82
83
84
85
86
87
88
89
90
91
92
93
94
95
96
97
98
99
100
101
102
103
104
105
106
107
108
109
110
111
112
113
114
115
116
117
118
119
120
121
122
123
124
125
126
127
128
129
130
131
132
133
134
135
136
137
138
139
140
141
142
143
144
145
146
147
148
149
150
151
152
153
154
155
156
157
158
159
160
161
162
163
164
165
166
167
168
169
170
171
172
173
174
175
176
177
178
179
180
181
182
183
184
185
186
187
188
189
190
191
192
193
194
195
196
197
198
199
200
201
202
203
204
205
206
207
208
209
210
211
212
213
214
215
216
217
218
219
220
221
222
223
224
225
226
227
228
229
230
231
232
233
234
235
236

