%nproc=8
%mem=1000MB
# rb3lyp/6-311+g** NMR geom=connectivity

Title

0 1
C    -4.0500558   -0.5771862    0.8136712
H    -5.0263804   -1.0082727    1.0024760
C    -3.9381552    0.6617804    0.2400876
H    -4.8252424    1.2338890   -0.0111295
C    -2.6768410    1.2433246    0.0057578
C    -1.4974121    0.5051527    0.2848253
C    -1.6508332   -0.7338728    0.9404026
H    -0.7713646   -1.2730967    1.2633753
C    -2.8898548   -1.2624035    1.1994307
H    -2.9683706   -2.2124563    1.7152676
C    -2.5773185    2.5963696   -0.4192930
H    -3.4870728    3.1412239   -0.6474055
C    -1.3741895    3.2147896   -0.4364030
H    -1.2997315    4.2742019   -0.6578144
C    -0.1719488    2.4994090   -0.1734588
C    -0.2043917    1.1018437    0.0192689
C     1.0513491    3.2042560   -0.0676222
H     1.0427344    4.2819499   -0.1896997
C     2.1942091    2.5487446    0.2579577
H     3.1168527    3.0912848    0.4334727
C     2.2216473    1.1336562    0.2934990
C     1.0486931    0.3945528    0.0302412
C     3.4483363    0.4614633    0.5573939
H     4.3095794    1.0606054    0.8334846
C     3.5427346   -0.8855926    0.4749463
H     4.4731467   -1.3939704    0.7038822
C     2.4490052   -1.6474447   -0.0196319
C     1.2150704   -1.0057258   -0.3013573
C     0.2531113   -1.7434440   -1.0216591
H    -0.6541356   -1.2535051   -1.3462847
C     0.4494193   -3.0628597   -1.3413779
H    -0.3083162   -3.5944309   -1.9054060
C     1.6251726   -3.7207967   -0.9552541
H     1.7670048   -4.7687404   -1.1927019
C     2.6109872   -3.0144177   -0.3183050
H     3.5525612   -3.4902813   -0.0646367
Bq         4.0010226227    -2.2099912818     0.8563838911
Bq         3.9716527079    -2.1252362468     0.9657182047
Bq         4.0230104365    -2.0967809288     0.7745306565
Bq         3.9459738435    -2.1394639058     1.0613119788
Bq         4.0486893008    -2.0825532697     0.6789368824
Bq         3.9202949792    -2.1536915649     1.1569057529
Bq         4.0743681652    -2.0683256107     0.5833431083
Bq         3.8946161149    -2.1679192239     1.2524995270
Bq         4.1000470295    -2.0540979517     0.4877493342
Bq         3.8689372506    -2.1821468829     1.3480933011
Bq         4.1257258938    -2.0398702926     0.3921555601
Bq         3.9973315722    -2.1110085878     0.8701244306
Bq         3.9679616573    -2.0262535528     0.9794587443
Bq         4.0193193860    -1.9977982347     0.7882711961
Bq         3.9422827930    -2.0404812118     1.0750525184
Bq         4.0449982503    -1.9835705757     0.6926774220
Bq         3.9166039287    -2.0547088708     1.1706462925
Bq         4.0706771146    -1.9693429167     0.5970836479
Bq         3.8909250644    -2.0689365299     1.2662400666
Bq         4.0963559789    -1.9551152576     0.5014898738
Bq         3.8652462000    -2.0831641889     1.3618338406
Bq         4.1220348433    -1.9408875986     0.4058960997
Bq         3.9936405217    -2.0120258937     0.8838649702
Bq         3.9642706068    -1.9272708587     0.9931992838
Bq         4.0156283354    -1.8988155407     0.8020117356
Bq         3.9385917425    -1.9414985178     1.0887930579
Bq         4.0413071998    -1.8845878817     0.7064179615
Bq         3.9129128782    -1.9557261768     1.1843868320
Bq         4.0669860641    -1.8703602226     0.6108241874
Bq         3.8872340138    -1.9699538358     1.2799806061
Bq         4.0926649284    -1.8561325636     0.5152304134
Bq         3.8615551495    -1.9841814949     1.3755743802
Bq         4.1183437927    -1.8419049046     0.4196366393
Bq         3.9899494711    -1.9130431997     0.8976055097
Bq         3.9605795563    -1.8282881647     1.0069398234
Bq         4.0119372849    -1.7998328466     0.8157522752
Bq         3.9349006919    -1.8425158237     1.1025335975
Bq         4.0376161492    -1.7856051876     0.7201585011
Bq         3.9092218276    -1.8567434828     1.1981273716
Bq         4.0632950136    -1.7713775286     0.6245647270
Bq         3.8835429633    -1.8709711418     1.2937211457
Bq         4.0889738779    -1.7571498696     0.5289709529
Bq         3.8578640990    -1.8851988008     1.3893149198
Bq         4.1146527422    -1.7429222105     0.4333771788
Bq         3.9862584206    -1.8140605057     0.9113460493
Bq         3.9568885057    -1.7293054707     1.0206803629
Bq         4.0082462344    -1.7008501526     0.8294928148
Bq         3.9312096414    -1.7435331297     1.1162741370
Bq         4.0339250987    -1.6866224936     0.7338990407
Bq         3.9055307771    -1.7577607887     1.2118679111
Bq         4.0596039630    -1.6723948346     0.6383052666
Bq         3.8798519128    -1.7719884478     1.3074616852
Bq         4.0852828273    -1.6581671755     0.5427114925
Bq         3.8541730484    -1.7862161068     1.4030554593
Bq         4.1109616917    -1.6439395165     0.4471177184
Bq         3.9825673701    -1.7150778116     0.9250865889
Bq         3.9531974552    -1.6303227766     1.0344209025
Bq         4.0045551838    -1.6018674586     0.8432333543
Bq         3.9275185909    -1.6445504357     1.1300146766
Bq         4.0302340482    -1.5876397995     0.7476395802
Bq         3.9018397266    -1.6587780947     1.2256084507
Bq         4.0559129125    -1.5734121405     0.6520458061
Bq         3.8761608622    -1.6730057537     1.3212022248
Bq         4.0815917768    -1.5591844815     0.5564520320
Bq         3.8504819979    -1.6872334127     1.4167959989
Bq         4.1072706411    -1.5449568225     0.4608582579
Bq         3.9788763195    -1.6160951176     0.9388271284
Bq         3.9495064047    -1.5313400826     1.0481614421
Bq         4.0008641333    -1.5028847645     0.8569738939
Bq         3.9238275403    -1.5455677416     1.1437552162
Bq         4.0265429976    -1.4886571055     0.7613801198
Bq         3.8981486760    -1.5597954007     1.2393489903
Bq         4.0522218620    -1.4744294465     0.6657863457
Bq         3.8724698117    -1.5740230597     1.3349427643
Bq         4.0779007263    -1.4602017875     0.5701925716
Bq         3.8467909474    -1.5882507187     1.4305365384
Bq         4.1035795906    -1.4459741284     0.4745987975
Bq         3.9751852690    -1.5171124236     0.9525676680
Bq         3.9458153541    -1.4323573886     1.0619019816
Bq         3.9971730828    -1.4039020705     0.8707144334
Bq         3.9201364898    -1.4465850476     1.1574957557
Bq         4.0228519471    -1.3896744115     0.7751206593
Bq         3.8944576255    -1.4608127066     1.2530895298
Bq         4.0485308114    -1.3754467524     0.6795268852
Bq         3.8687787612    -1.4750403656     1.3486833039
Bq         4.0742096757    -1.3612190934     0.5839331111
Bq         3.8430998968    -1.4892680247     1.4442770780
Bq         4.0998885401    -1.3469914344     0.4883393371
Bq         3.9714942184    -1.4181297295     0.9663082075
Bq         3.9421243036    -1.3333746945     1.0756425212
Bq         3.9934820322    -1.3049193765     0.8844549730
Bq         3.9164454393    -1.3476023536     1.1712362953
Bq         4.0191608966    -1.2906917174     0.7888611989
Bq         3.8907665749    -1.3618300126     1.2668300694
Bq         4.0448397609    -1.2764640584     0.6932674248
Bq         3.8650877106    -1.3760576716     1.3624238435
Bq         4.0705186252    -1.2622363994     0.5976736507
Bq         3.8394088463    -1.3902853306     1.4580176176
Bq         4.0961974895    -1.2480087404     0.5020798766
Bq         3.9678031679    -1.3191470355     0.9800487471
Bq         3.9384332531    -1.2343920005     1.0893830607
Bq         3.9897909817    -1.2059366824     0.8981955126
Bq         3.9127543887    -1.2486196595     1.1849768348
Bq         4.0154698460    -1.1917090234     0.8026017385
Bq         3.8870755244    -1.2628473185     1.2805706089
Bq         4.0411487103    -1.1774813644     0.7070079644
Bq         3.8613966601    -1.2770749776     1.3761643830
Bq         4.0668275747    -1.1632537054     0.6114141903
Bq         3.8357177958    -1.2913026366     1.4717581571
Bq         4.0925064390    -1.1490260463     0.5158204162
Bq         3.9641121174    -1.2201643415     0.9937892866
Bq         3.9347422025    -1.1354093065     1.1031236003
Bq         3.9860999312    -1.1069539884     0.9119360521
Bq         3.9090633382    -1.1496369655     1.1987173744
Bq         4.0117787955    -1.0927263294     0.8163422780
Bq         3.8833844739    -1.1638646245     1.2943111485
Bq         4.0374576598    -1.0784986703     0.7207485039
Bq         3.8577056096    -1.1780922835     1.3899049226
Bq         4.0631365241    -1.0642710113     0.6251547298
Bq         3.8320267452    -1.1923199426     1.4854986967
Bq         4.0888153885    -1.0500433523     0.5295609557
Bq         3.9604210668    -1.1211816474     1.0075298262
Bq         3.9310511520    -1.0364266124     1.1168641399
Bq         3.9824088806    -1.0079712944     0.9256765917
Bq         3.9053722877    -1.0506542714     1.2124579140
Bq         4.0080877450    -0.9937436353     0.8300828176
Bq         3.8796934233    -1.0648819305     1.3080516880
Bq         4.0337666093    -0.9795159763     0.7344890435
Bq         3.8540145590    -1.0791095895     1.4036454621
Bq         4.0594454736    -0.9652883173     0.6388952694
Bq         3.8283356947    -1.0933372485     1.4992392362
Bq         4.0851243379    -0.9510606583     0.5433014953
Bq         3.9567300163    -1.0221989534     1.0212703658
Bq         3.9273601014    -0.9374439184     1.1306046794
Bq         3.9787178301    -0.9089886003     0.9394171312
Bq         3.9016812371    -0.9516715774     1.2261984535
Bq         4.0043966944    -0.8947609413     0.8438233571
Bq         3.8760023728    -0.9658992364     1.3217922276
Bq         4.0300755587    -0.8805332823     0.7482295830
Bq         3.8503235085    -0.9801268955     1.4173860017
Bq         4.0557544231    -0.8663056232     0.6526358089
Bq         3.8246446442    -0.9943545545     1.5129797758
Bq         4.0814332874    -0.8520779642     0.5570420348
Bq         3.9530389658    -0.9232162594     1.0350109053
Bq         3.9236690509    -0.8384612243     1.1443452190
Bq         3.9750267796    -0.8100059063     0.9531576708
Bq         3.8979901866    -0.8526888834     1.2399389931
Bq         4.0007056439    -0.7957782473     0.8575638967
Bq         3.8723113223    -0.8669165424     1.3355327672
Bq         4.0263845082    -0.7815505882     0.7619701226
Bq         3.8466324579    -0.8811442014     1.4311265413
Bq         4.0520633725    -0.7673229292     0.6663763485
Bq         3.8209535936    -0.8953718605     1.5267203154
Bq         4.0777422368    -0.7530952702     0.5707825744
Bq         3.9493479152    -0.8242335653     1.0487514449
Bq         3.9199780004    -0.7394785303     1.1580857585
Bq         3.9713357290    -0.7110232123     0.9668982103
Bq         3.8942991361    -0.7537061893     1.2536795326
Bq         3.9970145933    -0.6967955532     0.8713044363
Bq         3.8686202717    -0.7679338484     1.3492733067
Bq         4.0226934577    -0.6825678942     0.7757106622
Bq         3.8429414074    -0.7821615074     1.4448670808
Bq         4.0483723220    -0.6683402352     0.6801168881
Bq         3.8172625431    -0.7963891664     1.5404608549
Bq         4.0740511863    -0.6541125761     0.5845231140
Bq         3.9456568647    -0.7252508713     1.0624919844
Bq         3.9162869498    -0.6404958363     1.1718262981
Bq         3.9676446785    -0.6120405182     0.9806387499
Bq         3.8906080855    -0.6547234953     1.2674200722
Bq         3.9933235428    -0.5978128592     0.8850449758
Bq         3.8649292212    -0.6689511543     1.3630138463
Bq         4.0190024071    -0.5835852002     0.7894512017
Bq         3.8392503569    -0.6831788134     1.4586076204
Bq         4.0446812715    -0.5693575411     0.6938574276
Bq         3.8135714926    -0.6974064724     1.5542013945
Bq         4.0703601358    -0.5551298821     0.5982636535
Bq         3.9419658142    -0.6262681772     1.0762325240
Bq         3.9125958993    -0.5415131422     1.1855668377
Bq         3.9639536280    -0.5130578242     0.9943792895
Bq         3.8869170350    -0.5557408013     1.2811606117
Bq         3.9896324923    -0.4988301652     0.8987855154
Bq         3.8612381707    -0.5699684603     1.3767543858
Bq         4.0153113566    -0.4846025061     0.8031917413
Bq         3.8355593063    -0.5841961193     1.4723481599
Bq         4.0409902209    -0.4703748471     0.7075979672
Bq         3.8098804420    -0.5984237784     1.5679419340
Bq         4.0666690852    -0.4561471881     0.6120041931
Bq         3.9382747636    -0.5272854832     1.0899730636
Bq         3.9089048488    -0.4425304482     1.1993073772
Bq         3.9602625774    -0.4140751301     1.0081198290
Bq         3.8832259844    -0.4567581072     1.2949011513
Bq         3.9859414417    -0.3998474711     0.9125260549
Bq         3.8575471201    -0.4709857663     1.3904949254
Bq         4.0116203061    -0.3856198121     0.8169322808
Bq         3.8318682558    -0.4852134253     1.4860886995
Bq         4.0372991704    -0.3713921531     0.7213385067
Bq         3.8061893915    -0.4994410843     1.5816824736
Bq         4.0629780347    -0.3571644940     0.6257447326
Bq         3.9345837131    -0.4283027892     1.1037136031
Bq         3.9052137982    -0.3435477542     1.2130479168

1
2
3
4
5
6
7
8
9
10
11
12
13
14
15
16
17
18
19
20
21
22
23
24
25
26
27
28
29
30
31
32
33
34
35
36
37
38
39
40
41
42
43
44
45
46
47
48
49
50
51
52
53
54
55
56
57
58
59
60
61
62
63
64
65
66
67
68
69
70
71
72
73
74
75
76
77
78
79
80
81
82
83
84
85
86
87
88
89
90
91
92
93
94
95
96
97
98
99
100
101
102
103
104
105
106
107
108
109
110
111
112
113
114
115
116
117
118
119
120
121
122
123
124
125
126
127
128
129
130
131
132
133
134
135
136
137
138
139
140
141
142
143
144
145
146
147
148
149
150
151
152
153
154
155
156
157
158
159
160
161
162
163
164
165
166
167
168
169
170
171
172
173
174
175
176
177
178
179
180
181
182
183
184
185
186
187
188
189
190
191
192
193
194
195
196
197
198
199
200
201
202
203
204
205
206
207
208
209
210
211
212
213
214
215
216
217
218
219
220
221
222
223
224
225
226
227
228
229
230
231
232
233
234
235
236

