%nproc=8
%mem=1000MB
# rb3lyp/6-311+g** NMR geom=connectivity

Title

0 1
C    -4.0500558   -0.5771862    0.8136712
H    -5.0263804   -1.0082727    1.0024760
C    -3.9381552    0.6617804    0.2400876
H    -4.8252424    1.2338890   -0.0111295
C    -2.6768410    1.2433246    0.0057578
C    -1.4974121    0.5051527    0.2848253
C    -1.6508332   -0.7338728    0.9404026
H    -0.7713646   -1.2730967    1.2633753
C    -2.8898548   -1.2624035    1.1994307
H    -2.9683706   -2.2124563    1.7152676
C    -2.5773185    2.5963696   -0.4192930
H    -3.4870728    3.1412239   -0.6474055
C    -1.3741895    3.2147896   -0.4364030
H    -1.2997315    4.2742019   -0.6578144
C    -0.1719488    2.4994090   -0.1734588
C    -0.2043917    1.1018437    0.0192689
C     1.0513491    3.2042560   -0.0676222
H     1.0427344    4.2819499   -0.1896997
C     2.1942091    2.5487446    0.2579577
H     3.1168527    3.0912848    0.4334727
C     2.2216473    1.1336562    0.2934990
C     1.0486931    0.3945528    0.0302412
C     3.4483363    0.4614633    0.5573939
H     4.3095794    1.0606054    0.8334846
C     3.5427346   -0.8855926    0.4749463
H     4.4731467   -1.3939704    0.7038822
C     2.4490052   -1.6474447   -0.0196319
C     1.2150704   -1.0057258   -0.3013573
C     0.2531113   -1.7434440   -1.0216591
H    -0.6541356   -1.2535051   -1.3462847
C     0.4494193   -3.0628597   -1.3413779
H    -0.3083162   -3.5944309   -1.9054060
C     1.6251726   -3.7207967   -0.9552541
H     1.7670048   -4.7687404   -1.1927019
C     2.6109872   -3.0144177   -0.3183050
H     3.5525612   -3.4902813   -0.0646367
Bq         2.8436424733     1.5228957735     1.3102841246
Bq         2.9463579306     1.5798064096     0.9279090282
Bq         2.8179636090     1.5086681145     1.4058778987
Bq         2.9720367949     1.5940340686     0.8323152541
Bq         2.7922847446     1.4944404554     1.5014716728
Bq         2.9977156592     1.6082617277     0.7367214800
Bq         2.7666058803     1.4802127964     1.5970654469
Bq         3.0233945235     1.6224893867     0.6411277059
Bq         2.8950002019     1.5513510915     1.1190965764
Bq         2.8656302871     1.6361061265     1.2284308901
Bq         2.9169880157     1.6645614446     1.0372433419
Bq         2.8399514227     1.6218784675     1.3240246642
Bq         2.9426668800     1.6787891036     0.9416495678
Bq         2.8142725584     1.6076508085     1.4196184382
Bq         2.9683457444     1.6930167627     0.8460557937
Bq         2.7885936941     1.5934231495     1.5152122123
Bq         2.9940246087     1.7072444217     0.7504620196
Bq         2.7629148298     1.5791954904     1.6108059864
Bq         3.0197034730     1.7214720807     0.6548682455
Bq         2.8913091514     1.6503337856     1.1328371160
Bq         2.8619392365     1.7350888206     1.2421714296
Bq         2.9132969652     1.7635441386     1.0509838814
Bq         2.8362603722     1.7208611616     1.3377652037
Bq         2.9389758295     1.7777717977     0.9553901073
Bq         2.8105815079     1.7066335025     1.4333589778
Bq         2.9646546938     1.7919994567     0.8597963332
Bq         2.7849026436     1.6924058435     1.5289527519
Bq         2.9903335581     1.8062271157     0.7642025591
Bq         2.7592237792     1.6781781845     1.6245465260
Bq         3.0160124225     1.8204547748     0.6686087850
Bq         2.8876181008     1.7493164796     1.1465776555
Bq         2.8582481860     1.8340715146     1.2559119692
Bq         2.9096059146     1.8625268327     1.0647244210
Bq         2.8325693217     1.8198438556     1.3515057433
Bq         2.9352847790     1.8767544917     0.9691306469
Bq         2.8068904573     1.8056161966     1.4470995174
Bq         2.9609636433     1.8909821507     0.8735368728
Bq         2.7812115930     1.7913885375     1.5426932915
Bq         2.9866425076     1.9052098098     0.7779430987
Bq         2.7555327287     1.7771608785     1.6382870656
Bq         3.0123213719     1.9194374688     0.6823493246
Bq         2.8839270503     1.8482991736     1.1603181951
Bq         2.8545571355     1.9330542087     1.2696525087
Bq         2.9059148641     1.9615095267     1.0784649605
Bq         2.8288782711     1.9188265496     1.3652462828
Bq         2.9315937284     1.9757371857     0.9828711865
Bq         2.8031994068     1.9045988906     1.4608400569
Bq         2.9572725927     1.9899648448     0.8872774124
Bq         2.7775205425     1.8903712316     1.5564338310
Bq         2.9829514571     2.0041925038     0.7916836383
Bq         2.7518416782     1.8761435725     1.6520276051
Bq         3.0086303214     2.0184201628     0.6960898642
Bq         2.8802359998     1.9472818677     1.1740587346
Bq         2.8508660849     2.0320369027     1.2833930483
Bq         2.9022238136     2.0604922207     1.0922055001
Bq         2.8251872206     2.0178092437     1.3789868224
Bq         2.9279026779     2.0747198798     0.9966117260
Bq         2.7995083563     2.0035815846     1.4745805965
Bq         2.9535815422     2.0889475388     0.9010179519
Bq         2.7738294920     1.9893539256     1.5701743706
Bq         2.9792604065     2.1031751978     0.8054241778
Bq         2.7481506276     1.9751262666     1.6657681447
Bq         3.0049392709     2.1174028569     0.7098304037
Bq         2.8765449492     2.0462645617     1.1877992742
Bq         2.8471750344     2.1310195967     1.2971335879
Bq         2.8985327630     2.1594749148     1.1059460397
Bq         2.8214961701     2.1167919377     1.3927273619
Bq         2.9242116274     2.1737025738     1.0103522656
Bq         2.7958173057     2.1025642787     1.4883211360
Bq         2.9498904917     2.1879302328     0.9147584915
Bq         2.7701384414     2.0883366196     1.5839149101
Bq         2.9755693560     2.2021578919     0.8191647174
Bq         2.7444595771     2.0741089606     1.6795086842
Bq         3.0012482203     2.2163855509     0.7235709433
Bq         2.8728538987     2.1452472558     1.2015398138
Bq         3.1283038112    -2.8181151051     0.6360493917
Bq         3.1796615398    -2.7896597870     0.4448618435
Bq         3.1026249469    -2.8323427641     0.7316431658
Bq         3.2053404042    -2.7754321280     0.3492680694
Bq         3.0769460826    -2.8465704231     0.8272369399
Bq         3.2310192685    -2.7612044690     0.2536742953
Bq         3.0512672182    -2.8607980821     0.9228307140
Bq         3.2566981328    -2.7469768099     0.1580805212
Bq         3.0255883539    -2.8750257412     1.0184244881
Bq         3.2823769971    -2.7327491509     0.0624867471
Bq         3.1539826755    -2.8038874460     0.5404556176
Bq         3.1246127607    -2.7191324110     0.6497899313
Bq         3.1759704893    -2.6906770930     0.4586023831
Bq         3.0989338963    -2.7333600701     0.7453837054
Bq         3.2016493536    -2.6764494339     0.3630086090
Bq         3.0732550320    -2.7475877291     0.8409774794
Bq         3.2273282180    -2.6622217749     0.2674148349
Bq         3.0475761677    -2.7618153881     0.9365712535
Bq         3.2530070823    -2.6479941159     0.1718210608
Bq         3.0218973034    -2.7760430471     1.0321650276
Bq         3.2786859466    -2.6337664569     0.0762272867
Bq         3.1502916250    -2.7049047520     0.5541961572
Bq         3.1209217101    -2.6201497170     0.6635304708
Bq         3.1722794388    -2.5916943989     0.4723429226
Bq         3.0952428458    -2.6343773760     0.7591242449
Bq         3.1979583031    -2.5774667399     0.3767491485
Bq         3.0695639815    -2.6486050350     0.8547180190
Bq         3.2236371674    -2.5632390809     0.2811553744
Bq         3.0438851172    -2.6628326941     0.9503117931
Bq         3.2493160317    -2.5490114219     0.1855616003
Bq         3.0182062528    -2.6770603531     1.0459055672
Bq         3.2749948961    -2.5347837628     0.0899678262
Bq         3.1466005745    -2.6059220580     0.5679366967
Bq         3.1172306596    -2.5211670230     0.6772710104
Bq         3.1685883882    -2.4927117049     0.4860834622
Bq         3.0915517953    -2.5353946820     0.7728647845
Bq         3.1942672526    -2.4784840459     0.3904896881
Bq         3.0658729310    -2.5496223410     0.8684585586
Bq         3.2199461169    -2.4642563868     0.2948959140
Bq         3.0401940666    -2.5638500000     0.9640523327
Bq         3.2456249812    -2.4500287278     0.1993021399
Bq         3.0145152023    -2.5780776591     1.0596461068
Bq         3.2713038455    -2.4358010688     0.1037083658
Bq         3.1429095239    -2.5069393639     0.5816772363
Bq         3.1135396091    -2.4221843289     0.6910115499
Bq         3.1648973377    -2.3937290109     0.4998240017
Bq         3.0878607447    -2.4364119879     0.7866053240
Bq         3.1905762020    -2.3795013518     0.4042302276
Bq         3.0621818804    -2.4506396470     0.8821990981
Bq         3.2162550663    -2.3652736928     0.3086364536
Bq         3.0365030161    -2.4648673060     0.9777928722
Bq         3.2419339307    -2.3510460338     0.2130426795
Bq         3.0108241518    -2.4790949650     1.0733866463
Bq         3.2676127950    -2.3368183748     0.1174489054
Bq         3.1392184734    -2.4079566699     0.5954177758
Bq         3.1098485585    -2.3232016349     0.7047520895
Bq         3.1612062872    -2.2947463168     0.5135645413
Bq         3.0841696942    -2.3374292939     0.8003458636
Bq         3.1868851515    -2.2805186578     0.4179707672
Bq         3.0584908299    -2.3516569529     0.8959396377
Bq         3.2125640158    -2.2662909988     0.3223769931
Bq         3.0328119656    -2.3658846120     0.9915334118
Bq         3.2382428801    -2.2520633397     0.2267832190
Bq         3.0071331012    -2.3801122710     1.0871271859
Bq         3.2639217445    -2.2378356807     0.1311894449
Bq         3.1355274228    -2.3089739759     0.6091583154
Bq         3.1061575080    -2.2242189408     0.7184926291
Bq         3.1575152366    -2.1957636228     0.5273050809
Bq         3.0804786437    -2.2384465999     0.8140864031
Bq         3.1831941010    -2.1815359638     0.4317113068
Bq         3.0547997793    -2.2526742589     0.9096801772
Bq         3.2088729653    -2.1673083047     0.3361175327
Bq         3.0291209150    -2.2669019179     1.0052739513
Bq         3.2345518296    -2.1530806457     0.2405237586
Bq         3.0034420507    -2.2811295770     1.1008677254
Bq         3.2602306939    -2.1388529867     0.1449299845
Bq         3.1318363723    -2.2099912818     0.6228988550
Bq         3.1024664575    -2.1252362468     0.7322331686
Bq         3.1538241861    -2.0967809288     0.5410456204
Bq         3.0767875931    -2.1394639058     0.8278269427
Bq         3.1795030504    -2.0825532697     0.4454518463
Bq         3.0511087288    -2.1536915649     0.9234207168
Bq         3.2051819147    -2.0683256107     0.3498580722
Bq         3.0254298645    -2.1679192239     1.0190144909
Bq         3.2308607791    -2.0540979517     0.2542642981
Bq         2.9997510002    -2.1821468829     1.1146082650
Bq         3.2565396434    -2.0398702926     0.1586705240
Bq         3.1281453218    -2.1110085878     0.6366393945
Bq         3.0987754069    -2.0262535528     0.7459737082
Bq         3.1501331356    -1.9977982347     0.5547861600
Bq         3.0730965426    -2.0404812118     0.8415674823
Bq         3.1758119999    -1.9835705757     0.4591923859
Bq         3.0474176783    -2.0547088708     0.9371612564
Bq         3.2014908642    -1.9693429167     0.3635986118
Bq         3.0217388140    -2.0689365299     1.0327550305
Bq         3.2271697285    -1.9551152576     0.2680048377
Bq         2.9960599496    -2.0831641889     1.1283488045
Bq         3.2528485929    -1.9408875986     0.1724110636
Bq         3.1244542712    -2.0120258937     0.6503799341
Bq         3.0950843564    -1.9272708587     0.7597142477
Bq         3.1464420850    -1.8988155407     0.5685266995
Bq         3.0694054921    -1.9414985178     0.8553080218
Bq         3.1721209494    -1.8845878817     0.4729329254
Bq         3.0437266277    -1.9557261768     0.9509017959
Bq         3.1977998137    -1.8703602226     0.3773391513
Bq         3.0180477634    -1.9699538358     1.0464955700
Bq         3.2234786780    -1.8561325636     0.2817453773
Bq         2.9923688991    -1.9841814949     1.1420893441
Bq         3.2491575423    -1.8419049046     0.1861516032
Bq         3.1207632207    -1.9130431997     0.6641204736
Bq         3.0913933058    -1.8282881647     0.7734547873
Bq         3.1427510345    -1.7998328466     0.5822672391
Bq         3.0657144415    -1.8425158237     0.8690485614
Bq         3.1684298988    -1.7856051876     0.4866734650
Bq         3.0400355772    -1.8567434828     0.9646423355
Bq         3.1941087631    -1.7713775286     0.3910796909
Bq         3.0143567129    -1.8709711418     1.0602361096
Bq         3.2197876275    -1.7571498696     0.2954859168
Bq         2.9886778486    -1.8851988008     1.1558298837
Bq         3.2454664918    -1.7429222105     0.1998921427
Bq         3.1170721702    -1.8140605057     0.6778610132
Bq         3.0877022553    -1.7293054707     0.7871953268
Bq         3.1390599840    -1.7008501526     0.5960077787
Bq         3.0620233910    -1.7435331297     0.8827891009
Bq         3.1647388483    -1.6866224936     0.5004140046

1
2
3
4
5
6
7
8
9
10
11
12
13
14
15
16
17
18
19
20
21
22
23
24
25
26
27
28
29
30
31
32
33
34
35
36
37
38
39
40
41
42
43
44
45
46
47
48
49
50
51
52
53
54
55
56
57
58
59
60
61
62
63
64
65
66
67
68
69
70
71
72
73
74
75
76
77
78
79
80
81
82
83
84
85
86
87
88
89
90
91
92
93
94
95
96
97
98
99
100
101
102
103
104
105
106
107
108
109
110
111
112
113
114
115
116
117
118
119
120
121
122
123
124
125
126
127
128
129
130
131
132
133
134
135
136
137
138
139
140
141
142
143
144
145
146
147
148
149
150
151
152
153
154
155
156
157
158
159
160
161
162
163
164
165
166
167
168
169
170
171
172
173
174
175
176
177
178
179
180
181
182
183
184
185
186
187
188
189
190
191
192
193
194
195
196
197
198
199
200
201
202
203
204
205
206
207
208
209
210
211
212
213
214
215
216
217
218
219
220
221
222
223
224
225
226
227
228
229
230
231
232
233
234
235
236

