%nproc=8
%mem=1000MB
# rb3lyp/6-311+g** NMR geom=connectivity

Title

0 1
C    -4.0500558   -0.5771862    0.8136712
H    -5.0263804   -1.0082727    1.0024760
C    -3.9381552    0.6617804    0.2400876
H    -4.8252424    1.2338890   -0.0111295
C    -2.6768410    1.2433246    0.0057578
C    -1.4974121    0.5051527    0.2848253
C    -1.6508332   -0.7338728    0.9404026
H    -0.7713646   -1.2730967    1.2633753
C    -2.8898548   -1.2624035    1.1994307
H    -2.9683706   -2.2124563    1.7152676
C    -2.5773185    2.5963696   -0.4192930
H    -3.4870728    3.1412239   -0.6474055
C    -1.3741895    3.2147896   -0.4364030
H    -1.2997315    4.2742019   -0.6578144
C    -0.1719488    2.4994090   -0.1734588
C    -0.2043917    1.1018437    0.0192689
C     1.0513491    3.2042560   -0.0676222
H     1.0427344    4.2819499   -0.1896997
C     2.1942091    2.5487446    0.2579577
H     3.1168527    3.0912848    0.4334727
C     2.2216473    1.1336562    0.2934990
C     1.0486931    0.3945528    0.0302412
C     3.4483363    0.4614633    0.5573939
H     4.3095794    1.0606054    0.8334846
C     3.5427346   -0.8855926    0.4749463
H     4.4731467   -1.3939704    0.7038822
C     2.4490052   -1.6474447   -0.0196319
C     1.2150704   -1.0057258   -0.3013573
C     0.2531113   -1.7434440   -1.0216591
H    -0.6541356   -1.2535051   -1.3462847
C     0.4494193   -3.0628597   -1.3413779
H    -0.3083162   -3.5944309   -1.9054060
C     1.6251726   -3.7207967   -0.9552541
H     1.7670048   -4.7687404   -1.1927019
C     2.6109872   -3.0144177   -0.3183050
H     3.5525612   -3.4902813   -0.0646367
Bq         3.3368294496    -0.6404958363     1.0161696074
Bq         3.3881871782    -0.6120405182     0.8249820592
Bq         3.3111505852    -0.6547234953     1.1117633815
Bq         3.4138660425    -0.5978128592     0.7293882851
Bq         3.2854717209    -0.6689511543     1.2073571555
Bq         3.4395449069    -0.5835852002     0.6337945110
Bq         3.2597928566    -0.6831788134     1.3029509296
Bq         3.4652237712    -0.5693575411     0.5382007369
Bq         3.2341139923    -0.6974064724     1.3985447037
Bq         3.4909026355    -0.5551298821     0.4426069628
Bq         3.3625083139    -0.6262681772     0.9205758333
Bq         3.3331383990    -0.5415131422     1.0299101469
Bq         3.3844961277    -0.5130578242     0.8387225987
Bq         3.3074595347    -0.5557408013     1.1255039210
Bq         3.4101749920    -0.4988301652     0.7431288246
Bq         3.2817806704    -0.5699684603     1.2210976951
Bq         3.4358538563    -0.4846025061     0.6475350505
Bq         3.2561018061    -0.5841961193     1.3166914692
Bq         3.4615327206    -0.4703748471     0.5519412764
Bq         3.2304229417    -0.5984237784     1.4122852433
Bq         3.4872115850    -0.4561471881     0.4563475024
Bq         3.3588172633    -0.5272854832     0.9343163728
Bq         3.3294473485    -0.4425304482     1.0436506865
Bq         3.3808050771    -0.4140751301     0.8524631383
Bq         3.3037684842    -0.4567581072     1.1392444606
Bq         3.4064839415    -0.3998474711     0.7568693642
Bq         3.2780896198    -0.4709857663     1.2348382347
Bq         3.4321628058    -0.3856198121     0.6612755901
Bq         3.2524107555    -0.4852134253     1.3304320088
Bq         3.4578416701    -0.3713921531     0.5656818160
Bq         3.2267318912    -0.4994410843     1.4260257829
Bq         3.4835205344    -0.3571644940     0.4700880419
Bq         3.3551262128    -0.4283027892     0.9480569124
Bq         3.3257562980    -0.3435477542     1.0573912260
Bq         3.3771140266    -0.3150924361     0.8662036778
Bq         3.3000774336    -0.3577754132     1.1529850001
Bq         3.4027928909    -0.3008647771     0.7706099038
Bq         3.2743985693    -0.3720030722     1.2485787742
Bq         3.4284717552    -0.2866371181     0.6750161297
Bq         3.2487197050    -0.3862307313     1.3441725483
Bq         3.4541506196    -0.2724094590     0.5794223556
Bq         3.2230408407    -0.4004583903     1.4397663224
Bq         3.4798294839    -0.2581818000     0.4838285815
Bq         3.3514351623    -0.3293200951     0.9617974519
Bq         3.3220652474    -0.2445650601     1.0711317656
Bq         3.3734229761    -0.2161097421     0.8799442174
Bq         3.2963863831    -0.2587927192     1.1667255397
Bq         3.3991018404    -0.2018820830     0.7843504433
Bq         3.2707075188    -0.2730203782     1.2623193138
Bq         3.4247807047    -0.1876544240     0.6887566692
Bq         3.2450286545    -0.2872480372     1.3579130879
Bq         3.4504595690    -0.1734267650     0.5931628951
Bq         3.2193497901    -0.3014756962     1.4535068620
Bq         3.4761384334    -0.1591991060     0.4975691210
Bq         3.3477441117    -0.2303374011     0.9755379915
Bq         3.3183741969    -0.1455823661     1.0848723052
Bq         3.3697319255    -0.1171270480     0.8936847570
Bq         3.2926953326    -0.1598100251     1.1804660792
Bq         3.3954107899    -0.1028993890     0.7980909829
Bq         3.2670164682    -0.1740376842     1.2760598533
Bq         3.4210896542    -0.0886717300     0.7024972088
Bq         3.2413376039    -0.1882653432     1.3716536274
Bq         3.4467685185    -0.0744440710     0.6069034347
Bq         3.2156587396    -0.2024930022     1.4672474015
Bq         3.4724473828    -0.0602164119     0.5113096606
Bq         3.3440530612    -0.1313547071     0.9892785311
Bq         3.3146831464    -0.0465996721     1.0986128447
Bq         3.3660408750    -0.0181443540     0.9074252965
Bq         3.2890042820    -0.0608273311     1.1942066188
Bq         3.3917197393    -0.0039166950     0.8118315224
Bq         3.2633254177    -0.0750549901     1.2898003929
Bq         3.4173986036     0.0103109641     0.7162377483
Bq         3.2376465534    -0.0892826491     1.3853941670
Bq         3.4430774680     0.0245386231     0.6206439742
Bq         3.2119676891    -0.1035103082     1.4809879411
Bq         3.4687563323     0.0387662821     0.5250502001
Bq         3.3403620107    -0.0323720130     1.0030190706
Bq         3.3109920958     0.0523830220     1.1123533843
Bq         3.3623498245     0.0808383400     0.9211658361
Bq         3.2853132315     0.0381553629     1.2079471584
Bq         3.3880286888     0.0950659991     0.8255720620
Bq         3.2596343672     0.0239277039     1.3035409325
Bq         3.4137075531     0.1092936581     0.7299782879
Bq         3.2339555028     0.0097000449     1.3991347066
Bq         3.4393864174     0.1235213171     0.6343845138
Bq         3.2082766385    -0.0045276141     1.4947284807
Bq         3.4650652818     0.1377489761     0.5387907397
Bq         3.3366709601     0.0666106810     1.0167596102
Bq         3.3073010453     0.1513657160     1.1260939238
Bq         3.3586587739     0.1798210341     0.9349063756
Bq         3.2816221810     0.1371380570     1.2216876979
Bq         3.3843376382     0.1940486931     0.8393126015
Bq         3.2559433166     0.1229103980     1.3172814720
Bq         3.4100165026     0.2082763521     0.7437188275
Bq         3.2302644523     0.1086827389     1.4128752461
Bq         3.4356953669     0.2225040112     0.6481250534
Bq         3.2045855880     0.0944550799     1.5084690202
Bq         3.4613742312     0.2367316702     0.5525312793
Bq         3.3329799096     0.1655933750     1.0305001497
Bq         3.3036099947     0.2503484100     1.1398344634
Bq         3.3549677234     0.2788037281     0.9486469152
Bq         3.2779311304     0.2361207510     1.2354282375
Bq         3.3806465877     0.2930313871     0.8530531411
Bq         3.2522522661     0.2218930920     1.3310220116
Bq         3.4063254520     0.3072590462     0.7574593670
Bq         3.2265734018     0.2076654330     1.4266157857
Bq         3.4320043164     0.3214867052     0.6618655929
Bq         3.2008945375     0.1934377739     1.5222095598
Bq         3.4576831807     0.3357143642     0.5662718188
Bq         3.3292888591     0.2645760691     1.0442406893
Bq         3.2999189442     0.3493311041     1.1535750029
Bq         3.3512766729     0.3777864221     0.9623874548
Bq         3.2742400799     0.3351034451     1.2491687770
Bq         3.3769555372     0.3920140812     0.8667936807
Bq         3.2485612156     0.3208757860     1.3447625511
Bq         3.4026344015     0.4062417402     0.7711999066
Bq         3.2228823512     0.3066481270     1.4403563252
Bq         3.4283132658     0.4204693992     0.6756061325
Bq         3.1972034869     0.2924204680     1.5359500993
Bq         3.4539921301     0.4346970583     0.5800123584
Bq         3.3255978085     0.3635587631     1.0579812289
Bq         3.2962278937     0.4483137981     1.1673155425
Bq         3.3475856223     0.4767691162     0.9761279943
Bq         3.2705490294     0.4340861391     1.2629093166
Bq         3.3732644866     0.4909967752     0.8805342202
Bq         3.2448701650     0.4198584801     1.3585030907
Bq         3.3989433510     0.5052244342     0.7849404461
Bq         3.2191913007     0.4056308210     1.4540968648
Bq         3.4246222153     0.5194520933     0.6893466720
Bq         3.1935124364     0.3914031620     1.5496906389
Bq         3.4503010796     0.5336797523     0.5937528979
Bq         3.3219067580     0.4625414571     1.0717217684
Bq         3.2925368431     0.5472964922     1.1810560821
Bq         3.3438945718     0.5757518102     0.9898685339
Bq         3.2668579788     0.5330688331     1.2766498562
Bq         3.3695734361     0.5899794692     0.8942747598
Bq         3.2411791145     0.5188411741     1.3722436303
Bq         3.3952523004     0.6042071283     0.7986809857
Bq         3.2155002502     0.5046135151     1.4678374044
Bq         3.4209311648     0.6184347873     0.7030872116
Bq         3.1898213858     0.4903858560     1.5634311784
Bq         3.4466100291     0.6326624463     0.6074934375
Bq         3.3182157075     0.5615241512     1.0854623080
Bq         3.2888457926     0.6462791862     1.1947966216
Bq         3.3402035212     0.6747345042     1.0036090734
Bq         3.2631669283     0.6320515272     1.2903903957
Bq         3.3658823856     0.6889621633     0.9080152993
Bq         3.2374880640     0.6178238681     1.3859841698
Bq         3.3915612499     0.7031898223     0.8124215252
Bq         3.2118091996     0.6035962091     1.4815779439
Bq         3.4172401142     0.7174174813     0.7168277512
Bq         3.1861303353     0.5893685501     1.5771717180
Bq         3.4429189785     0.7316451404     0.6212339771
Bq         3.3145246569     0.6605068452     1.0992028475
Bq         3.2851547421     0.7452618802     1.2085371612
Bq         3.3365124707     0.7737171983     1.0173496130
Bq         3.2594758777     0.7310342212     1.3041309353
Bq         3.3621913350     0.7879448573     0.9217558389
Bq         3.2337970134     0.7168065622     1.3997247094
Bq         3.3878701994     0.8021725163     0.8261620648
Bq         3.2081181491     0.7025789031     1.4953184835
Bq         3.4135490637     0.8164001754     0.7305682907
Bq         3.1824392848     0.6883512441     1.5909122576
Bq         3.4392279280     0.8306278344     0.6349745166
Bq         3.3108336064     0.7594895393     1.1129433871
Bq         3.2814636915     0.8442445743     1.2222777007
Bq         3.3328214202     0.8726998923     1.0310901526
Bq         3.2557848272     0.8300169152     1.3178714748
Bq         3.3585002845     0.8869275513     0.9354963785
Bq         3.2301059629     0.8157892562     1.4134652489
Bq         3.3841791488     0.9011552104     0.8399026044
Bq         3.2044270986     0.8015615972     1.5090590230
Bq         3.4098580131     0.9153828694     0.7443088303
Bq         3.1787482342     0.7873339381     1.6046527971
Bq         3.4355368775     0.9296105284     0.6487150562
Bq         3.3071425559     0.8584722333     1.1266839266
Bq         3.2777726410     0.9432272683     1.2360182403
Bq         3.3291303696     0.9716825864     1.0448306921
Bq         3.2520937767     0.9289996093     1.3316120144
Bq         3.3548092340     0.9859102454     0.9492369180
Bq         3.2264149124     0.9147719502     1.4272057885
Bq         3.3804880983     1.0001379044     0.8536431439
Bq         3.2007360480     0.9005442912     1.5227995626
Bq         3.4061669626     1.0143655634     0.7580493698
Bq         3.1750571837     0.8863166322     1.6183933367
Bq         3.4318458269     1.0285932225     0.6624555957
Bq         3.3034515053     0.9574549273     1.1404244662
Bq         3.2740815905     1.0422099623     1.2497587799
Bq         3.3254393191     1.0706652804     1.0585712317
Bq         3.2484027261     1.0279823033     1.3453525540
Bq         3.3511181834     1.0848929394     0.9629774576
Bq         3.2227238618     1.0137546443     1.4409463281
Bq         3.3767970478     1.0991205984     0.8673836835
Bq         3.1970449975     0.9995269852     1.5365401021
Bq         3.4024759121     1.1133482575     0.7717899094
Bq         3.1713661332     0.9852993262     1.6321338762
Bq         3.4281547764     1.1275759165     0.6761961353
Bq         3.2997604548     1.0564376214     1.1541650058
Bq         3.2703905399     1.1411926564     1.2634993194
Bq         3.3217482686     1.1696479744     1.0723117712

1
2
3
4
5
6
7
8
9
10
11
12
13
14
15
16
17
18
19
20
21
22
23
24
25
26
27
28
29
30
31
32
33
34
35
36
37
38
39
40
41
42
43
44
45
46
47
48
49
50
51
52
53
54
55
56
57
58
59
60
61
62
63
64
65
66
67
68
69
70
71
72
73
74
75
76
77
78
79
80
81
82
83
84
85
86
87
88
89
90
91
92
93
94
95
96
97
98
99
100
101
102
103
104
105
106
107
108
109
110
111
112
113
114
115
116
117
118
119
120
121
122
123
124
125
126
127
128
129
130
131
132
133
134
135
136
137
138
139
140
141
142
143
144
145
146
147
148
149
150
151
152
153
154
155
156
157
158
159
160
161
162
163
164
165
166
167
168
169
170
171
172
173
174
175
176
177
178
179
180
181
182
183
184
185
186
187
188
189
190
191
192
193
194
195
196
197
198
199
200
201
202
203
204
205
206
207
208
209
210
211
212
213
214
215
216
217
218
219
220
221
222
223
224
225
226
227
228
229
230
231
232
233
234
235
236

