%nproc=8
%mem=1000MB
# rb3lyp/6-311+g** NMR geom=connectivity

Title

0 1
C    -4.0500558   -0.5771862    0.8136712
H    -5.0263804   -1.0082727    1.0024760
C    -3.9381552    0.6617804    0.2400876
H    -4.8252424    1.2338890   -0.0111295
C    -2.6768410    1.2433246    0.0057578
C    -1.4974121    0.5051527    0.2848253
C    -1.6508332   -0.7338728    0.9404026
H    -0.7713646   -1.2730967    1.2633753
C    -2.8898548   -1.2624035    1.1994307
H    -2.9683706   -2.2124563    1.7152676
C    -2.5773185    2.5963696   -0.4192930
H    -3.4870728    3.1412239   -0.6474055
C    -1.3741895    3.2147896   -0.4364030
H    -1.2997315    4.2742019   -0.6578144
C    -0.1719488    2.4994090   -0.1734588
C    -0.2043917    1.1018437    0.0192689
C     1.0513491    3.2042560   -0.0676222
H     1.0427344    4.2819499   -0.1896997
C     2.1942091    2.5487446    0.2579577
H     3.1168527    3.0912848    0.4334727
C     2.2216473    1.1336562    0.2934990
C     1.0486931    0.3945528    0.0302412
C     3.4483363    0.4614633    0.5573939
H     4.3095794    1.0606054    0.8334846
C     3.5427346   -0.8855926    0.4749463
H     4.4731467   -1.3939704    0.7038822
C     2.4490052   -1.6474447   -0.0196319
C     1.2150704   -1.0057258   -0.3013573
C     0.2531113   -1.7434440   -1.0216591
H    -0.6541356   -1.2535051   -1.3462847
C     0.4494193   -3.0628597   -1.3413779
H    -0.3083162   -3.5944309   -1.9054060
C     1.6251726   -3.7207967   -0.9552541
H     1.7670048   -4.7687404   -1.1927019
C     2.6109872   -3.0144177   -0.3183050
H     3.5525612   -3.4902813   -0.0646367
Bq         3.3003809289     0.3450363965     1.0736957396
Bq         3.3293328349     0.3352094263     0.8760465104
Bq         3.2859049758     0.3499498816     1.1725203542
Bq         3.3438087880     0.3302959413     0.7772218959
Bq         3.2714290228     0.3548633667     1.2713449688
Bq         3.3582847410     0.3253824562     0.6783972813
Bq         3.2569530697     0.3597768518     1.3701695834
Bq         3.3727606941     0.3204689711     0.5795726667
Bq         3.2424771167     0.3646903368     1.4689941979
Bq         3.3872366471     0.3155554860     0.4807480521
Bq         3.3148568819     0.3401229114     0.9748711250
Bq         3.3010930628     0.4449156119     1.0688341348
Bq         3.3300449689     0.4350886417     0.8711849057
Bq         3.2866171098     0.4498290970     1.1676587494
Bq         3.3445209219     0.4301751566     0.7723602911
Bq         3.2721411567     0.4547425820     1.2664833640
Bq         3.3589968750     0.4252616716     0.6735356765
Bq         3.2576652037     0.4596560671     1.3653079786
Bq         3.3734728280     0.4203481865     0.5747110619
Bq         3.2431892506     0.4645695522     1.4641325932
Bq         3.3879487811     0.4154347014     0.4758864473
Bq         3.3155690158     0.4400021268     0.9700095203
Bq         3.3018051967     0.5447948273     1.0639725301
Bq         3.3307571028     0.5349678571     0.8663233009
Bq         3.2873292437     0.5497083123     1.1627971447
Bq         3.3452330559     0.5300543720     0.7674986863
Bq         3.2728532907     0.5546217974     1.2616217592
Bq         3.3597090089     0.5251408869     0.6686740717
Bq         3.2583773376     0.5595352825     1.3604463738
Bq         3.3741849620     0.5202274018     0.5698494572
Bq         3.2439013846     0.5644487676     1.4592709884
Bq         3.3886609150     0.5153139168     0.4710248426
Bq         3.3162811498     0.5398813422     0.9651479155
Bq         3.3025173307     0.6446740426     1.0591109253
Bq         3.3314692368     0.6348470725     0.8614616961
Bq         3.2880413776     0.6495875277     1.1579355399
Bq         3.3459451898     0.6299335874     0.7626370816
Bq         3.2735654246     0.6545010128     1.2567601545
Bq         3.3604211429     0.6250201023     0.6638124670
Bq         3.2590894716     0.6594144979     1.3555847691
Bq         3.3748970959     0.6201066172     0.5649878524
Bq         3.2446135185     0.6643279830     1.4544093836
Bq         3.3893730490     0.6151931321     0.4661632378
Bq         3.3169932837     0.6397605576     0.9602863107
Bq         3.3032294646     0.7445532580     1.0542493205
Bq         3.3321813707     0.7347262878     0.8566000914
Bq         3.2887535116     0.7494667431     1.1530739351
Bq         3.3466573238     0.7298128028     0.7577754768
Bq         3.2742775585     0.7543802282     1.2518985497
Bq         3.3611332768     0.7248993177     0.6589508622
Bq         3.2598016055     0.7592937133     1.3507231643
Bq         3.3756092298     0.7199858326     0.5601262476
Bq         3.2453256524     0.7642071983     1.4495477789
Bq         3.3900851829     0.7150723475     0.4613016330
Bq         3.3177054177     0.7396397729     0.9554247060
Bq         3.3039415986     0.8444324734     1.0493877158
Bq         3.3328935047     0.8346055032     0.8517384866
Bq         3.2894656455     0.8493459585     1.1482123304
Bq         3.3473694577     0.8296920181     0.7529138720
Bq         3.2749896925     0.8542594436     1.2470369449
Bq         3.3618454107     0.8247785331     0.6540892574
Bq         3.2605137394     0.8591729286     1.3458615595
Bq         3.3763213638     0.8198650480     0.5552646429
Bq         3.2460377864     0.8640864137     1.4446861741
Bq         3.3907973168     0.8149515629     0.4564400283
Bq         3.3184175516     0.8395189883     0.9505631012
Bq         3.3046537325     0.9443116888     1.0445261110
Bq         3.3336056386     0.9344847186     0.8468768818
Bq         3.2901777795     0.9492251739     1.1433507256
Bq         3.3480815916     0.9295712335     0.7480522673
Bq         3.2757018264     0.9541386589     1.2421753402
Bq         3.3625575447     0.9246577484     0.6492276527
Bq         3.2612258734     0.9590521440     1.3409999548
Bq         3.3770334977     0.9197442634     0.5504030381
Bq         3.2467499203     0.9639656291     1.4398245693
Bq         3.3915094508     0.9148307783     0.4515784235
Bq         3.3191296856     0.9393982037     0.9457014964
Bq         3.3053658665     1.0441909041     1.0396645062
Bq         3.3343177725     1.0343639340     0.8420152771
Bq         3.2908899134     1.0491043892     1.1384891208
Bq         3.3487937256     1.0294504489     0.7431906625
Bq         3.2764139604     1.0540178743     1.2373137354
Bq         3.3632696786     1.0245369638     0.6443660479
Bq         3.2619380073     1.0589313594     1.3361383500
Bq         3.3777456317     1.0196234787     0.5455414333
Bq         3.2474620543     1.0638448445     1.4349629646
Bq         3.3922215847     1.0147099936     0.4467168187
Bq         3.3198418195     1.0392774191     0.9408398917
Bq         3.3060780004     1.1440701195     1.0348029015
Bq         3.3350299065     1.1342431494     0.8371536723
Bq         3.2916020473     1.1489836046     1.1336275161
Bq         3.3495058595     1.1293296643     0.7383290577
Bq         3.2771260943     1.1538970897     1.2324521306
Bq         3.3639818126     1.1244161792     0.6395044431
Bq         3.2626501413     1.1588105748     1.3312767452
Bq         3.3784577656     1.1195026941     0.5406798286
Bq         3.2481741882     1.1637240599     1.4301013598
Bq         3.3929337187     1.1145892090     0.4418552140
Bq         3.3205539534     1.1391566344     0.9359782869
Bq         3.3067901343     1.2439493349     1.0299412967
Bq         3.3357420404     1.2341223647     0.8322920675
Bq         3.2923141813     1.2488628200     1.1287659113
Bq         3.3502179935     1.2292088797     0.7334674530
Bq         3.2778382282     1.2537763051     1.2275905259
Bq         3.3646939465     1.2242953946     0.6346428384
Bq         3.2633622752     1.2586897901     1.3264151405
Bq         3.3791698996     1.2193819095     0.5358182238
Bq         3.2488863222     1.2636032752     1.4252397550
Bq         3.3936458526     1.2144684244     0.4369936092
Bq         3.3212660874     1.2390358498     0.9311166821
Bq         3.3075022683     1.3438285503     1.0250796919
Bq         3.3364541744     1.3340015801     0.8274304628
Bq         3.2930263152     1.3487420354     1.1239043065
Bq         3.3509301274     1.3290880950     0.7286058482
Bq         3.2785503622     1.3536555204     1.2227289211
Bq         3.3654060805     1.3241746099     0.6297812336
Bq         3.2640744091     1.3585690055     1.3215535357
Bq         3.3798820335     1.3192611249     0.5309566190
Bq         3.2495984561     1.3634824906     1.4203781503
Bq         3.3943579865     1.3143476398     0.4321320044
Bq         3.3219782213     1.3389150652     0.9262550774
Bq         3.3082144022     1.4437077657     1.0202180872
Bq         3.3371663083     1.4338807955     0.8225688580
Bq         3.2937384492     1.4486212507     1.1190427018
Bq         3.3516422614     1.4289673104     0.7237442434
Bq         3.2792624961     1.4535347358     1.2178673163
Bq         3.3661182144     1.4240538253     0.6249196288
Bq         3.2647865431     1.4584482209     1.3166919309
Bq         3.3805941674     1.4191403402     0.5260950143
Bq         3.2503105900     1.4633617060     1.4155165455
Bq         3.3950701205     1.4142268552     0.4272703997
Bq         3.3226903553     1.4387942806     0.9213934726
Bq         3.3089265362     1.5435869810     1.0153564824
Bq         3.3378784422     1.5337600109     0.8177072532
Bq         3.2944505831     1.5485004661     1.1141810970
Bq         3.3523543953     1.5288465258     0.7188826387
Bq         3.2799746301     1.5534139512     1.2130057116
Bq         3.3668303483     1.5239330407     0.6200580241
Bq         3.2654986770     1.5583274363     1.3118303262
Bq         3.3813063014     1.5190195556     0.5212334095
Bq         3.2510227240     1.5632409214     1.4106549407
Bq         3.3957822544     1.5141060705     0.4224087949
Bq         3.3234024892     1.5386734959     0.9165318678
Bq         3.3096386701     1.6434661964     1.0104948776
Bq         3.3385905762     1.6336392262     0.8128456485
Bq         3.2951627171     1.6483796815     1.1093194922
Bq         3.3530665292     1.6287257412     0.7140210339
Bq         3.2806867640     1.6532931666     1.2081441068
Bq         3.3675424823     1.6238122561     0.6151964193
Bq         3.2662108110     1.6582066517     1.3069687214
Bq         3.3820184353     1.6188987710     0.5163718047
Bq         3.2517348579     1.6631201367     1.4057933360
Bq         3.3964943884     1.6139852859     0.4175471901
Bq         3.3241146231     1.6385527113     0.9116702631
Bq         3.3103508040     1.7433454118     1.0056332729
Bq         3.3393027101     1.7335184416     0.8079840437
Bq         3.2958748510     1.7482588969     1.1044578875
Bq         3.3537786632     1.7286049565     0.7091594291
Bq         3.2813988980     1.7531723819     1.2032825020
Bq         3.3682546162     1.7236914715     0.6103348145
Bq         3.2669229449     1.7580858670     1.3021071166
Bq         3.3827305693     1.7187779864     0.5115102000
Bq         3.2524469919     1.7629993521     1.4009317312
Bq         3.3972065223     1.7138645013     0.4126855854
Bq         3.3248267571     1.7384319267     0.9068086583
Bq         3.3110629380     1.8432246272     1.0007716681
Bq         3.3400148441     1.8333976570     0.8031224389
Bq         3.2965869849     1.8481381122     1.0995962827
Bq         3.3544907971     1.8284841719     0.7042978244
Bq         3.2821110319     1.8530515973     1.1984208973
Bq         3.3689667502     1.8235706868     0.6054732098
Bq         3.2676350789     1.8579650824     1.2972455119
Bq         3.3834427032     1.8186572017     0.5066485952
Bq         3.2531591258     1.8628785675     1.3960701264
Bq         3.3979186563     1.8137437167     0.4078239806
Bq         3.3255388910     1.8383111421     0.9019470535
Bq         3.3117750719     1.9431038425     0.9959100633
Bq         3.3407269780     1.9332768724     0.7982608342
Bq         3.2972991189     1.9480173276     1.0947346779
Bq         3.3552029311     1.9283633873     0.6994362196
Bq         3.2828231658     1.9529308127     1.1935592925
Bq         3.3696788841     1.9234499022     0.6006116050
Bq         3.2683472128     1.9578442978     1.2923839071
Bq         3.3841548371     1.9185364171     0.5017869904
Bq         3.2538712597     1.9627577829     1.3912085217
Bq         3.3986307902     1.9136229320     0.4029623758
Bq         3.3262510250     1.9381903575     0.8970854488
Bq         3.3124872059     2.0429830579     0.9910484586
Bq         3.3414391120     2.0331560878     0.7933992294
Bq         3.2980112528     2.0478965430     1.0898730732
Bq         3.3559150650     2.0282426027     0.6945746148
Bq         3.2835352998     2.0528100281     1.1886976877
Bq         3.3703910180     2.0233291176     0.5957500002
Bq         3.2690593467     2.0577235132     1.2875223023
Bq         3.3848669711     2.0184156325     0.4969253857
Bq         3.2545833937     2.0626369982     1.3863469169
Bq         3.3993429241     2.0135021474     0.3981007711
Bq         3.3269631589     2.0380695728     0.8922238440
Bq         3.3131993398     2.1428622733     0.9861868538
Bq         3.3421512459     2.1330353031     0.7885376246

1
2
3
4
5
6
7
8
9
10
11
12
13
14
15
16
17
18
19
20
21
22
23
24
25
26
27
28
29
30
31
32
33
34
35
36
37
38
39
40
41
42
43
44
45
46
47
48
49
50
51
52
53
54
55
56
57
58
59
60
61
62
63
64
65
66
67
68
69
70
71
72
73
74
75
76
77
78
79
80
81
82
83
84
85
86
87
88
89
90
91
92
93
94
95
96
97
98
99
100
101
102
103
104
105
106
107
108
109
110
111
112
113
114
115
116
117
118
119
120
121
122
123
124
125
126
127
128
129
130
131
132
133
134
135
136
137
138
139
140
141
142
143
144
145
146
147
148
149
150
151
152
153
154
155
156
157
158
159
160
161
162
163
164
165
166
167
168
169
170
171
172
173
174
175
176
177
178
179
180
181
182
183
184
185
186
187
188
189
190
191
192
193
194
195
196
197
198
199
200
201
202
203
204
205
206
207
208
209
210
211
212
213
214
215
216
217
218
219
220
221
222
223
224
225
226
227
228
229
230
231
232
233
234
235
236

