%nproc=8
%mem=1000MB
# rb3lyp/6-311+g** NMR geom=connectivity

Title

0 1
C    -4.0500558   -0.5771862    0.8136712
H    -5.0263804   -1.0082727    1.0024760
C    -3.9381552    0.6617804    0.2400876
H    -4.8252424    1.2338890   -0.0111295
C    -2.6768410    1.2433246    0.0057578
C    -1.4974121    0.5051527    0.2848253
C    -1.6508332   -0.7338728    0.9404026
H    -0.7713646   -1.2730967    1.2633753
C    -2.8898548   -1.2624035    1.1994307
H    -2.9683706   -2.2124563    1.7152676
C    -2.5773185    2.5963696   -0.4192930
H    -3.4870728    3.1412239   -0.6474055
C    -1.3741895    3.2147896   -0.4364030
H    -1.2997315    4.2742019   -0.6578144
C    -0.1719488    2.4994090   -0.1734588
C    -0.2043917    1.1018437    0.0192689
C     1.0513491    3.2042560   -0.0676222
H     1.0427344    4.2819499   -0.1896997
C     2.1942091    2.5487446    0.2579577
H     3.1168527    3.0912848    0.4334727
C     2.2216473    1.1336562    0.2934990
C     1.0486931    0.3945528    0.0302412
C     3.4483363    0.4614633    0.5573939
H     4.3095794    1.0606054    0.8334846
C     3.5427346   -0.8855926    0.4749463
H     4.4731467   -1.3939704    0.7038822
C     2.4490052   -1.6474447   -0.0196319
C     1.2150704   -1.0057258   -0.3013573
C     0.2531113   -1.7434440   -1.0216591
H    -0.6541356   -1.2535051   -1.3462847
C     0.4494193   -3.0628597   -1.3413779
H    -0.3083162   -3.5944309   -1.9054060
C     1.6251726   -3.7207967   -0.9552541
H     1.7670048   -4.7687404   -1.1927019
C     2.6109872   -3.0144177   -0.3183050
H     3.5525612   -3.4902813   -0.0646367
Bq        -0.4250800748     3.1367409420     0.2879947528
Bq        -0.4388438940     3.2415336424     0.3819577626
Bq        -0.4098919879     3.2317066723     0.1843085335
Bq        -0.4533198470     3.2464471275     0.4807823772
Bq        -0.3954160348     3.2267931872     0.0854839189
Bq        -0.4677958000     3.2513606126     0.5796069918
Bq        -0.3809400818     3.2218797021    -0.0133406957
Bq        -0.4822717531     3.2562740977     0.6784316064
Bq        -0.3664641287     3.2169662170    -0.1121653103
Bq        -0.4967477061     3.2611875828     0.7772562210
Bq        -0.3519881757     3.2120527319    -0.2109899249
Bq        -0.4243679409     3.2366201574     0.2831331481
Bq        -0.4381317600     3.3414128578     0.3770961579
Bq        -0.4091798539     3.3315858877     0.1794469287
Bq        -0.4526077131     3.3463263429     0.4759207725
Bq        -0.3947039009     3.3266724026     0.0806223141
Bq        -0.4670836661     3.3512398280     0.5747453871
Bq        -0.3802279478     3.3217589175    -0.0182023005
Bq        -0.4815596191     3.3561533131     0.6735700016
Bq        -0.3657519948     3.3168454324    -0.1170269150
Bq        -0.4960355722     3.3610667981     0.7723946162
Bq        -0.3512760417     3.3119319473    -0.2158515296
Bq        -0.4236558070     3.3364993727     0.2782715433
Bq        -0.4374196261     3.4412920732     0.3722345531
Bq        -0.4084677200     3.4314651030     0.1745853239
Bq        -0.4518955791     3.4462055583     0.4710591677
Bq        -0.3939917669     3.4265516179     0.0757607094
Bq        -0.4663715322     3.4511190434     0.5698837823
Bq        -0.3795158139     3.4216381329    -0.0230639052
Bq        -0.4808474852     3.4560325284     0.6687083969
Bq        -0.3650398608     3.4167246478    -0.1218885198
Bq        -0.4953234382     3.4609460135     0.7675330115
Bq        -0.3505639078     3.4118111627    -0.2207131344
Bq        -0.4229436730     3.4363785881     0.2734099385
Bq        -0.4367074921     3.5411712886     0.3673729483
Bq        -0.4077555860     3.5313443184     0.1697237192
Bq        -0.4511834452     3.5460847737     0.4661975629
Bq        -0.3932796330     3.5264308333     0.0708991046
Bq        -0.4656593982     3.5509982587     0.5650221775
Bq        -0.3788036799     3.5215173482    -0.0279255100
Bq        -0.4801353513     3.5559117438     0.6638467921
Bq        -0.3643277269     3.5166038632    -0.1267501246
Bq        -0.4946113043     3.5608252289     0.7626714067
Bq        -0.3498517739     3.5116903781    -0.2255747392
Bq        -0.4222315391     3.5362578035     0.2685483338
Bq        -0.4359953582     3.6410505039     0.3625113436
Bq        -0.4070434521     3.6312235338     0.1648621144
Bq        -0.4504713112     3.6459639890     0.4613359582
Bq        -0.3925674991     3.6263100487     0.0660374998
Bq        -0.4649472643     3.6508774741     0.5601605728
Bq        -0.3780915460     3.6213965636    -0.0327871148
Bq        -0.4794232173     3.6557909592     0.6589851873
Bq        -0.3636155930     3.6164830785    -0.1316117293
Bq        -0.4938991704     3.6607044443     0.7578098019
Bq        -0.3491396399     3.6115695935    -0.2304363439
Bq        -0.4215194051     3.6361370189     0.2636867290
Bq        -0.4352832242     3.7409297193     0.3576497388
Bq        -0.4063313182     3.7311027492     0.1600005096
Bq        -0.4497591773     3.7458432044     0.4564743534
Bq        -0.3918553651     3.7261892641     0.0611758951
Bq        -0.4642351303     3.7507566895     0.5552989680
Bq        -0.3773794121     3.7212757790    -0.0376487195
Bq        -0.4787110834     3.7556701746     0.6541235826
Bq        -0.3629034590     3.7163622939    -0.1364733341
Bq        -0.4931870364     3.7605836597     0.7529481972
Bq        -0.3484275060     3.7114488088    -0.2352979487
Bq        -0.4208072712     3.7360162342     0.2588251242
Bq        -0.4345710903     3.8408089347     0.3527881340
Bq        -0.4056191842     3.8309819645     0.1551389049
Bq        -0.4490470433     3.8457224198     0.4516127486
Bq        -0.3911432312     3.8260684795     0.0563142903
Bq        -0.4635229964     3.8506359049     0.5504373632
Bq        -0.3766672781     3.8211549944    -0.0425103243
Bq        -0.4779989494     3.8555493900     0.6492619778
Bq        -0.3621913251     3.8162415093    -0.1413349389
Bq        -0.4924749025     3.8604628750     0.7480865924
Bq        -0.3477153720     3.8113280242    -0.2401595535
Bq        -0.4200951373     3.8358954496     0.2539635195
Bq        -0.4338589564     3.9406881501     0.3479265293
Bq        -0.4049070503     3.9308611799     0.1502773001
Bq        -0.4483349094     3.9456016352     0.4467511439
Bq        -0.3904310972     3.9259476948     0.0514526855
Bq        -0.4628108624     3.9505151202     0.5455757585
Bq        -0.3759551442     3.9210342098    -0.0473719291
Bq        -0.4772868155     3.9554286053     0.6444003730
Bq        -0.3614791911     3.9161207247    -0.1461965436
Bq        -0.4917627685     3.9603420904     0.7432249876
Bq        -0.3470032381     3.9112072396    -0.2450211582
Bq        -0.4193830033     3.9357746650     0.2491019147
Bq        -0.4331468224     4.0405673655     0.3430649245
Bq        -0.4041949163     4.0307403953     0.1454156953
Bq        -0.4476227755     4.0454808505     0.4418895391
Bq        -0.3897189633     4.0258269102     0.0465910808
Bq        -0.4620987285     4.0503943356     0.5407141537
Bq        -0.3752430102     4.0209134251    -0.0522335338
Bq        -0.4765746815     4.0553078207     0.6395387683
Bq        -0.3607670572     4.0159999400    -0.1510581484
Bq        -0.4910506346     4.0602213058     0.7383633829
Bq        -0.3462911042     4.0110864550    -0.2498827630
Bq        -0.4186708694     4.0356538804     0.2442403099
Bq        -0.4324346885     4.1404465808     0.3382033198
Bq        -0.4034827824     4.1306196107     0.1405540906
Bq        -0.4469106415     4.1453600659     0.4370279343
Bq        -0.3890068293     4.1257061256     0.0417294760
Bq        -0.4613865946     4.1502735510     0.5358525489
Bq        -0.3745308763     4.1207926405    -0.0570951386
Bq        -0.4758625476     4.1551870361     0.6346771635
Bq        -0.3600549233     4.1158791554    -0.1559197532
Bq        -0.4903385007     4.1601005212     0.7335017781
Bq        -0.3455789702     4.1109656703    -0.2547443678
Bq        -0.4179587354     4.1355330958     0.2393787052
Bq        -0.4317225545     4.2403257962     0.3333417150
Bq        -0.4027706484     4.2304988260     0.1356924858
Bq        -0.4461985076     4.2452392813     0.4321663296
Bq        -0.3882946954     4.2255853410     0.0368678712
Bq        -0.4606744606     4.2501527664     0.5309909442
Bq        -0.3738187424     4.2206718559    -0.0619567434
Bq        -0.4751504137     4.2550662515     0.6298155587
Bq        -0.3593427893     4.2157583708    -0.1607813579
Bq        -0.4896263667     4.2599797365     0.7286401733
Bq        -0.3448668363     4.2108448857    -0.2596059725
Bq        -0.4172466015     4.2354123111     0.2345171004
Bq        -0.4310104206     4.3402050116     0.3284801102
Bq        -0.4020585145     4.3303780414     0.1308308810
Bq        -0.4454863736     4.3451184967     0.4273047248
Bq        -0.3875825615     4.3254645563     0.0320062665
Bq        -0.4599623267     4.3500319818     0.5261293394
Bq        -0.3731066084     4.3205510713    -0.0668183481
Bq        -0.4744382797     4.3549454668     0.6249539540
Bq        -0.3586306554     4.3156375862    -0.1656429627
Bq        -0.4889142328     4.3598589519     0.7237785686
Bq        -0.3441547023     4.3107241011    -0.2644675773
Bq        -0.4165344675     4.3352915265     0.2296554956
Bq        -0.3676729938    -0.6537557573     0.5860538075
Bq        -0.3387210877    -0.6635827274     0.3884045783
Bq        -0.3821489468    -0.6488422722     0.6848784220
Bq        -0.3242451347    -0.6684962125     0.2895799637
Bq        -0.3966248999    -0.6439287871     0.7837030366
Bq        -0.3097691816    -0.6734096976     0.1907553491
Bq        -0.4111008529    -0.6390153020     0.8825276512
Bq        -0.2952932286    -0.6783231827     0.0919307345
Bq        -0.4255768060    -0.6341018169     0.9813522658
Bq        -0.2808172755    -0.6832366678    -0.0068938801
Bq        -0.3531970408    -0.6586692423     0.4872291929
Bq        -0.3669608599    -0.5538765419     0.5811922027
Bq        -0.3380089538    -0.5637035121     0.3835429735
Bq        -0.3814368129    -0.5489630568     0.6800168173
Bq        -0.3235330007    -0.5686169971     0.2847183589
Bq        -0.3959127660    -0.5440495717     0.7788414319
Bq        -0.3090570477    -0.5735304822     0.1858937443
Bq        -0.4103887190    -0.5391360866     0.8776660464
Bq        -0.2945810946    -0.5784439673     0.0870691298
Bq        -0.4248646720    -0.5342226016     0.9764906610
Bq        -0.2801051416    -0.5833574524    -0.0117554848
Bq        -0.3524849068    -0.5587900270     0.4823675881
Bq        -0.3662487259    -0.4539973265     0.5763305979
Bq        -0.3372968198    -0.4638242967     0.3786813688
Bq        -0.3807246790    -0.4490838414     0.6751552125
Bq        -0.3228208668    -0.4687377818     0.2798567542
Bq        -0.3952006320    -0.4441703563     0.7739798271
Bq        -0.3083449137    -0.4736512668     0.1810321396
Bq        -0.4096765851    -0.4392568713     0.8728044417
Bq        -0.2938689607    -0.4785647519     0.0822075250
Bq        -0.4241525381    -0.4343433862     0.9716290563
Bq        -0.2793930077    -0.4834782370    -0.0166170896
Bq        -0.3517727729    -0.4589108116     0.4775059833
Bq        -0.3655365920    -0.3541181111     0.5714689932
Bq        -0.3365846859    -0.3639450813     0.3738197640
Bq        -0.3800125450    -0.3492046261     0.6702936077
Bq        -0.3221087328    -0.3688585664     0.2749951494
Bq        -0.3944884981    -0.3442911410     0.7691182223
Bq        -0.3076327798    -0.3737720515     0.1761705348
Bq        -0.4089644511    -0.3393776559     0.8679428369
Bq        -0.2931568268    -0.3786855365     0.0773459202
Bq        -0.4234404042    -0.3344641708     0.9667674515
Bq        -0.2786808737    -0.3835990216    -0.0214786944
Bq        -0.3510606389    -0.3590315962     0.4726443786
Bq        -0.3648244580    -0.2542388958     0.5666073884
Bq        -0.3358725519    -0.2640658659     0.3689581592
Bq        -0.3793004111    -0.2493254107     0.6654320030
Bq        -0.3213965989    -0.2689793510     0.2701335446
Bq        -0.3937763641    -0.2444119256     0.7642566176
Bq        -0.3069206459    -0.2738928361     0.1713089301
Bq        -0.4082523172    -0.2394984405     0.8630812321
Bq        -0.2924446928    -0.2788063212     0.0724843155
Bq        -0.4227282702    -0.2345849554     0.9619058467
Bq        -0.2779687398    -0.2837198063    -0.0263402991
Bq        -0.3503485050    -0.2591523808     0.4677827738
Bq        -0.3641123241    -0.1543596804     0.5617457836
Bq        -0.3351604180    -0.1641866505     0.3640965545
Bq        -0.3785882771    -0.1494461953     0.6605703982
Bq        -0.3206844650    -0.1691001356     0.2652719399
Bq        -0.3930642302    -0.1445327102     0.7593950128
Bq        -0.3062085119    -0.1740136207     0.1664473253
Bq        -0.4075401832    -0.1396192251     0.8582196274
Bq        -0.2917325589    -0.1789271058     0.0676227107
Bq        -0.4220161363    -0.1347057400     0.9570442420
Bq        -0.2772566058    -0.1838405909    -0.0312019039
Bq        -0.3496363711    -0.1592731655     0.4629211690
Bq        -0.3634001902    -0.0544804650     0.5568841789

1
2
3
4
5
6
7
8
9
10
11
12
13
14
15
16
17
18
19
20
21
22
23
24
25
26
27
28
29
30
31
32
33
34
35
36
37
38
39
40
41
42
43
44
45
46
47
48
49
50
51
52
53
54
55
56
57
58
59
60
61
62
63
64
65
66
67
68
69
70
71
72
73
74
75
76
77
78
79
80
81
82
83
84
85
86
87
88
89
90
91
92
93
94
95
96
97
98
99
100
101
102
103
104
105
106
107
108
109
110
111
112
113
114
115
116
117
118
119
120
121
122
123
124
125
126
127
128
129
130
131
132
133
134
135
136
137
138
139
140
141
142
143
144
145
146
147
148
149
150
151
152
153
154
155
156
157
158
159
160
161
162
163
164
165
166
167
168
169
170
171
172
173
174
175
176
177
178
179
180
181
182
183
184
185
186
187
188
189
190
191
192
193
194
195
196
197
198
199
200
201
202
203
204
205
206
207
208
209
210
211
212
213
214
215
216
217
218
219
220
221
222
223
224
225
226
227
228
229
230
231
232
233
234
235
236

