%nproc=8
%mem=1000MB
# rb3lyp/6-311+g** NMR geom=connectivity

Title

0 1
C    -4.0500558   -0.5771862    0.8136712
H    -5.0263804   -1.0082727    1.0024760
C    -3.9381552    0.6617804    0.2400876
H    -4.8252424    1.2338890   -0.0111295
C    -2.6768410    1.2433246    0.0057578
C    -1.4974121    0.5051527    0.2848253
C    -1.6508332   -0.7338728    0.9404026
H    -0.7713646   -1.2730967    1.2633753
C    -2.8898548   -1.2624035    1.1994307
H    -2.9683706   -2.2124563    1.7152676
C    -2.5773185    2.5963696   -0.4192930
H    -3.4870728    3.1412239   -0.6474055
C    -1.3741895    3.2147896   -0.4364030
H    -1.2997315    4.2742019   -0.6578144
C    -0.1719488    2.4994090   -0.1734588
C    -0.2043917    1.1018437    0.0192689
C     1.0513491    3.2042560   -0.0676222
H     1.0427344    4.2819499   -0.1896997
C     2.1942091    2.5487446    0.2579577
H     3.1168527    3.0912848    0.4334727
C     2.2216473    1.1336562    0.2934990
C     1.0486931    0.3945528    0.0302412
C     3.4483363    0.4614633    0.5573939
H     4.3095794    1.0606054    0.8334846
C     3.5427346   -0.8855926    0.4749463
H     4.4731467   -1.3939704    0.7038822
C     2.4490052   -1.6474447   -0.0196319
C     1.2150704   -1.0057258   -0.3013573
C     0.2531113   -1.7434440   -1.0216591
H    -0.6541356   -1.2535051   -1.3462847
C     0.4494193   -3.0628597   -1.3413779
H    -0.3083162   -3.5944309   -1.9054060
C     1.6251726   -3.7207967   -0.9552541
H     1.7670048   -4.7687404   -1.1927019
C     2.6109872   -3.0144177   -0.3183050
H     3.5525612   -3.4902813   -0.0646367
Bq        -2.9818544748     1.9477579214     0.0704648257
Bq        -2.9829164615     2.0782060724     0.3406169163
Bq        -2.9815004792     1.9042752044    -0.0195858712
Bq        -2.9832704571     2.1216887894     0.4306676132
Bq        -2.9811464837     1.8607924874    -0.1096365681
Bq        -2.9836244527     2.1651715065     0.5207183101
Bq        -2.9807924881     1.8173097704    -0.1996872650
Bq        -2.9839784483     2.2086542235     0.6107690070
Bq        -2.9804384925     1.7738270534    -0.2897379619
Bq        -2.9822084704     1.9912406384     0.1605155225
Bq        -2.9823915337     2.1247747481     0.2070838384
Bq        -2.9816835425     2.0378093141     0.0269824446
Bq        -2.9827455293     2.1682574651     0.2971345353
Bq        -2.9813295470     1.9943265971    -0.0630682523
Bq        -2.9830995248     2.2117401821     0.3871852322
Bq        -2.9809755514     1.9508438801    -0.1531189491
Bq        -2.9834535204     2.2552228991     0.4772359290
Bq        -2.9806215558     1.9073611631    -0.2431696460
Bq        -2.9838075160     2.2987056161     0.5672866259
Bq        -2.9802675603     1.8638784461    -0.3332203429
Bq        -2.9820375381     2.0812920311     0.1170331415
Bq        -2.9822206014     2.2148261408     0.1636014574
Bq        -2.9815126103     2.1278607068    -0.0164999364
Bq        -2.9825745970     2.2583088578     0.2536521542
Bq        -2.9811586147     2.0843779898    -0.1065506333
Bq        -2.9829285926     2.3017915748     0.3437028511
Bq        -2.9808046191     2.0408952728    -0.1966013302
Bq        -2.9832825881     2.3452742918     0.4337535480
Bq        -2.9804506236     1.9974125558    -0.2866520270
Bq        -2.9836365837     2.3887570088     0.5238042449
Bq        -2.9800966280     1.9539298388    -0.3767027239
Bq        -2.9818666058     2.1713434238     0.0735507605
Bq        -2.9820496691     2.3048775334     0.1201190763
Bq        -2.9813416780     2.2179120994    -0.0599823174
Bq        -2.9824036647     2.3483602505     0.2101697732
Bq        -2.9809876824     2.1744293824    -0.1500330143
Bq        -2.9827576603     2.3918429675     0.3002204701
Bq        -2.9806336869     2.1309466654    -0.2400837112
Bq        -2.9831116559     2.4353256845     0.3902711670
Bq        -2.9802796913     2.0874639484    -0.3301344081
Bq        -2.9834656514     2.4788084015     0.4803218639
Bq        -2.9799256957     2.0439812314    -0.4201851050
Bq        -2.9816956736     2.2613948164     0.0300683794
Bq        -2.9818787369     2.3949289261     0.0766366953
Bq        -2.9811707457     2.3079634921    -0.1034646985
Bq        -2.9822327324     2.4384116431     0.1666873922
Bq        -2.9808167502     2.2644807751    -0.1935153953
Bq        -2.9825867280     2.4818943601     0.2567380891
Bq        -2.9804627546     2.2209980581    -0.2835660922
Bq        -2.9829407236     2.5253770771     0.3467887859
Bq        -2.9801087590     2.1775153411    -0.3736167891
Bq        -2.9832947192     2.5688597941     0.4368394828
Bq        -2.9797547634     2.1340326241    -0.4636674860
Bq        -2.9815247413     2.3514462091    -0.0134140016
Bq        -2.9817078046     2.4849803188     0.0331543143
Bq        -2.9809998135     2.3980148848    -0.1469470795
Bq        -2.9820618002     2.5284630358     0.1232050111
Bq        -2.9806458179     2.3545321678    -0.2369977764
Bq        -2.9824157957     2.5719457528     0.2132557080
Bq        -2.9802918223     2.3110494508    -0.3270484733
Bq        -2.9827697913     2.6154284698     0.3033064049
Bq        -2.9799378267     2.2675667338    -0.4170991701
Bq        -2.9831237869     2.6589111868     0.3933571018
Bq        -2.9795838312     2.2240840168    -0.5071498670
Bq        -2.9813538090     2.4414976018    -0.0568963826
Bq        -2.8902551910    -2.0175893147     2.2076664698
Bq        -2.8895471998    -2.1045547487     2.0275650761
Bq        -2.8906091866    -1.9741065977     2.2977171667
Bq        -2.8891932043    -2.1480374658     1.9375143792
Bq        -2.8909631821    -1.9306238807     2.3877678636
Bq        -2.8888392087    -2.1915201828     1.8474636823
Bq        -2.8913171777    -1.8871411637     2.4778185605
Bq        -2.8884852131    -2.2350028998     1.7574129854
Bq        -2.8916711733    -1.8436584467     2.5678692574
Bq        -2.8881312175    -2.2784856168     1.6673622885
Bq        -2.8899011954    -2.0610720317     2.1176157729
Bq        -2.8900842587    -1.9275379221     2.1641840888
Bq        -2.8893762676    -2.0145033561     1.9840826950
Bq        -2.8904382543    -1.8840552051     2.2542347857
Bq        -2.8890222720    -2.0579860731     1.8940319982
Bq        -2.8907922499    -1.8405724881     2.3442854826
Bq        -2.8886682764    -2.1014687901     1.8039813013
Bq        -2.8911462454    -1.7970897711     2.4343361794
Bq        -2.8883142808    -2.1449515071     1.7139306044
Bq        -2.8915002410    -1.7536070540     2.5243868763
Bq        -2.8879602853    -2.1884342241     1.6238799075
Bq        -2.8897302631    -1.9710206391     2.0741333919
Bq        -2.8899133264    -1.8374865294     2.1207017078
Bq        -2.8892053353    -1.9244519634     1.9406003140
Bq        -2.8902673220    -1.7940038124     2.2107524046
Bq        -2.8888513397    -1.9679346804     1.8505496171
Bq        -2.8906213176    -1.7505210954     2.3008031015
Bq        -2.8884973441    -2.0114173974     1.7604989202
Bq        -2.8909753132    -1.7070383784     2.3908537984
Bq        -2.8881433486    -2.0549001144     1.6704482234
Bq        -2.8913293087    -1.6635556614     2.4809044953
Bq        -2.8877893530    -2.0983828314     1.5803975265
Bq        -2.8895593309    -1.8809692464     2.0306510109
Bq        -2.8897423942    -1.7474351367     2.0772193267
Bq        -2.8890344030    -1.8344005707     1.8971179330
Bq        -2.8900963897    -1.7039524197     2.1672700236
Bq        -2.8886804074    -1.8778832877     1.8070672361
Bq        -2.8904503853    -1.6604697027     2.2573207205
Bq        -2.8883264119    -1.9213660047     1.7170165392
Bq        -2.8908043809    -1.6169869857     2.3473714174
Bq        -2.8879724163    -1.9648487217     1.6269658423
Bq        -2.8911583765    -1.5735042687     2.4374221143
Bq        -2.8876184207    -2.0083314388     1.5369151454
Bq        -2.8893883986    -1.7909178537     1.9871686299
Bq        -2.8895714619    -1.6573837441     2.0337369457
Bq        -2.8888634707    -1.7443491781     1.8536355519
Bq        -2.8899254575    -1.6139010270     2.1237876426
Bq        -2.8885094752    -1.7878318951     1.7635848551
Bq        -2.8902794530    -1.5704183100     2.2138383395
Bq        -2.8881554796    -1.8313146121     1.6735341582
Bq        -2.8906334486    -1.5269355930     2.3038890363
Bq        -2.8878014840    -1.8747973291     1.5834834613
Bq        -2.8909874442    -1.4834528760     2.3939397332
Bq        -2.8874474884    -1.9182800461     1.4934327644
Bq        -2.8892174663    -1.7008664611     1.9436862488
Bq        -2.8894005296    -1.5673323514     1.9902545647
Bq        -2.8886925385    -1.6542977854     1.8101531709
Bq        -2.8897545252    -1.5238496344     2.0803052616
Bq        -2.8883385429    -1.6977805024     1.7201024740
Bq        -2.8901085208    -1.4803669174     2.1703559584
Bq        -2.8879845473    -1.7412632194     1.6300517771
Bq        -2.8904625163    -1.4368842004     2.2604066553
Bq        -2.8876305517    -1.7847459364     1.5400010803
Bq        -2.8908165119    -1.3934014834     2.3504573522
Bq        -2.8872765562    -1.8282286534     1.4499503834
Bq        -2.8890465340    -1.6108150684     1.9002038678
Bq        -2.8892295973    -1.4772809587     1.9467721836
Bq        -2.8885216062    -1.5642463927     1.7666707899
Bq        -2.8895835929    -1.4337982417     2.0368228805
Bq        -2.8881676106    -1.6077291097     1.6766200930
Bq        -2.8899375885    -1.3903155247     2.1268735774
Bq        -2.8878136150    -1.6512118267     1.5865693961
Bq        -2.8902915841    -1.3468328077     2.2169242743
Bq        -2.8874596195    -1.6946945437     1.4965186992
Bq        -2.8906455796    -1.3033500907     2.3069749712
Bq        -2.8871056239    -1.7381772607     1.4064680023
Bq        -2.8888756018    -1.5207636757     1.8567214868
Bq        -2.8890586651    -1.3872295660     1.9032898026
Bq        -2.8883506739    -1.4741950001     1.7231884088
Bq        -2.8894126606    -1.3437468490     1.9933404995
Bq        -2.8879966783    -1.5176777171     1.6331377120
Bq        -2.8897666562    -1.3002641320     2.0833911964
Bq        -2.8876426828    -1.5611604341     1.5430870151
Bq        -2.8901206518    -1.2567814150     2.1734418933
Bq        -2.8872886872    -1.6046431511     1.4530363182
Bq        -2.8904746474    -1.2132986980     2.2634925901
Bq        -2.8869346916    -1.6481258681     1.3629856213
Bq        -2.8887046695    -1.4307122830     1.8132391057
Bq        -2.8888877328    -1.2971781734     1.8598074216
Bq        -2.8881797416    -1.3841436074     1.6797060278
Bq        -2.8892417284    -1.2536954564     1.9498581185
Bq        -2.8878257461    -1.4276263244     1.5896553309
Bq        -2.8895957239    -1.2102127394     2.0399088153
Bq        -2.8874717505    -1.4711090414     1.4996046340
Bq        -2.8899497195    -1.1667300224     2.1299595122
Bq        -2.8871177549    -1.5145917584     1.4095539372
Bq        -2.8903037151    -1.1232473054     2.2200102091
Bq        -2.8867637593    -1.5580744754     1.3195032403
Bq        -2.8885337372    -1.3406608904     1.7697567247
Bq        -2.8887168005    -1.2071267807     1.8163250405
Bq        -2.8880088094    -1.2940922147     1.6362236468
Bq        -2.8890707961    -1.1636440637     1.9063757374
Bq        -2.8876548138    -1.3375749317     1.5461729499
Bq        -2.8894247917    -1.1201613467     1.9964264343
Bq        -2.8873008182    -1.3810576487     1.4561222530
Bq        -2.8897787872    -1.0766786297     2.0864771312
Bq        -2.8869468226    -1.4245403657     1.3660715561
Bq        -2.8901327828    -1.0331959127     2.1765278281
Bq        -2.8865928271    -1.4680230827     1.2760208592
Bq        -2.8883628049    -1.2506094977     1.7262743437
Bq        -2.8885458682    -1.1170753880     1.7728426595
Bq        -2.8878378771    -1.2040408220     1.5927412657
Bq        -2.8888998638    -1.0735926710     1.8628933564
Bq        -2.8874838815    -1.2475235390     1.5026905689
Bq        -2.8892538594    -1.0301099540     1.9529440533
Bq        -2.8871298859    -1.2910062560     1.4126398720
Bq        -2.8896078550    -0.9866272370     2.0429947502
Bq        -2.8867758904    -1.3344889731     1.3225891751
Bq        -2.8899618505    -0.9431445200     2.1330454470
Bq        -2.8864218948    -1.3779716901     1.2325384782
Bq        -2.8881918727    -1.1605581050     1.6827919626
Bq        -2.8883749360    -1.0270239954     1.7293602785
Bq        -2.8876669448    -1.1139894294     1.5492588847
Bq        -2.8887289315    -0.9835412784     1.8194109754
Bq        -2.8873129492    -1.1574721464     1.4592081878
Bq        -2.8890829271    -0.9400585614     1.9094616722
Bq        -2.8869589537    -1.2009548634     1.3691574909
Bq        -2.8894369227    -0.8965758443     1.9995123691
Bq        -2.8866049581    -1.2444375804     1.2791067941
Bq        -2.8897909183    -0.8530931273     2.0895630660
Bq        -2.8862509625    -1.2879202974     1.1890560972
Bq        -2.8880209404    -1.0705067124     1.6393095816
Bq        -2.8882040037    -0.9369726027     1.6858778974
Bq        -2.8874960125    -1.0239380367     1.5057765037
Bq        -2.8885579993    -0.8934898857     1.7759285943

1
2
3
4
5
6
7
8
9
10
11
12
13
14
15
16
17
18
19
20
21
22
23
24
25
26
27
28
29
30
31
32
33
34
35
36
37
38
39
40
41
42
43
44
45
46
47
48
49
50
51
52
53
54
55
56
57
58
59
60
61
62
63
64
65
66
67
68
69
70
71
72
73
74
75
76
77
78
79
80
81
82
83
84
85
86
87
88
89
90
91
92
93
94
95
96
97
98
99
100
101
102
103
104
105
106
107
108
109
110
111
112
113
114
115
116
117
118
119
120
121
122
123
124
125
126
127
128
129
130
131
132
133
134
135
136
137
138
139
140
141
142
143
144
145
146
147
148
149
150
151
152
153
154
155
156
157
158
159
160
161
162
163
164
165
166
167
168
169
170
171
172
173
174
175
176
177
178
179
180
181
182
183
184
185
186
187
188
189
190
191
192
193
194
195
196
197
198
199
200
201
202
203
204
205
206
207
208
209
210
211
212
213
214
215
216
217
218
219
220
221
222
223
224
225
226
227
228
229
230
231
232
233
234
235
236

