%nproc=8
%mem=1000MB
# rb3lyp/6-311+g** NMR geom=connectivity

Title

0 1
C    -4.0500558   -0.5771862    0.8136712
H    -5.0263804   -1.0082727    1.0024760
C    -3.9381552    0.6617804    0.2400876
H    -4.8252424    1.2338890   -0.0111295
C    -2.6768410    1.2433246    0.0057578
C    -1.4974121    0.5051527    0.2848253
C    -1.6508332   -0.7338728    0.9404026
H    -0.7713646   -1.2730967    1.2633753
C    -2.8898548   -1.2624035    1.1994307
H    -2.9683706   -2.2124563    1.7152676
C    -2.5773185    2.5963696   -0.4192930
H    -3.4870728    3.1412239   -0.6474055
C    -1.3741895    3.2147896   -0.4364030
H    -1.2997315    4.2742019   -0.6578144
C    -0.1719488    2.4994090   -0.1734588
C    -0.2043917    1.1018437    0.0192689
C     1.0513491    3.2042560   -0.0676222
H     1.0427344    4.2819499   -0.1896997
C     2.1942091    2.5487446    0.2579577
H     3.1168527    3.0912848    0.4334727
C     2.2216473    1.1336562    0.2934990
C     1.0486931    0.3945528    0.0302412
C     3.4483363    0.4614633    0.5573939
H     4.3095794    1.0606054    0.8334846
C     3.5427346   -0.8855926    0.4749463
H     4.4731467   -1.3939704    0.7038822
C     2.4490052   -1.6474447   -0.0196319
C     1.2150704   -1.0057258   -0.3013573
C     0.2531113   -1.7434440   -1.0216591
H    -0.6541356   -1.2535051   -1.3462847
C     0.4494193   -3.0628597   -1.3413779
H    -0.3083162   -3.5944309   -1.9054060
C     1.6251726   -3.7207967   -0.9552541
H     1.7670048   -4.7687404   -1.1927019
C     2.6109872   -3.0144177   -0.3183050
H     3.5525612   -3.4902813   -0.0646367
Bq         1.5556865840    -0.4561471881    -0.0625081334
Bq         1.4272922624    -0.5272854832     0.4154607370
Bq         1.3979223476    -0.4425304482     0.5247950507
Bq         1.4492800762    -0.4140751301     0.3336075025
Bq         1.3722434832    -0.4567581072     0.6203888248
Bq         1.4749589405    -0.3998474711     0.2380137284
Bq         1.3465646189    -0.4709857663     0.7159825989
Bq         1.5006378049    -0.3856198121     0.1424199543
Bq         1.3208857546    -0.4852134253     0.8115763730
Bq         1.5263166692    -0.3713921531     0.0468261802
Bq         1.2952068903    -0.4994410843     0.9071701471
Bq         1.5519955335    -0.3571644940    -0.0487675939
Bq         1.4236012119    -0.4283027892     0.4292012766
Bq         1.3942312970    -0.3435477542     0.5385355903
Bq         1.4455890257    -0.3150924361     0.3473480421
Bq         1.3685524327    -0.3577754132     0.6341293644
Bq         1.4712678900    -0.3008647771     0.2517542680
Bq         1.3428735684    -0.3720030722     0.7297231384
Bq         1.4969467543    -0.2866371181     0.1561604939
Bq         1.3171947041    -0.3862307313     0.8253169125
Bq         1.5226256186    -0.2724094590     0.0605667198
Bq         1.2915158397    -0.4004583903     0.9209106866
Bq         1.5483044830    -0.2581818000    -0.0350270543
Bq         1.4199101613    -0.3293200951     0.4429418162
Bq         1.3905402465    -0.2445650601     0.5522761298
Bq         1.4418979751    -0.2161097421     0.3610885816
Bq         1.3648613822    -0.2587927192     0.6478699039
Bq         1.4675768395    -0.2018820830     0.2654948075
Bq         1.3391825178    -0.2730203782     0.7434636780
Bq         1.4932557038    -0.1876544240     0.1699010334
Bq         1.3135036535    -0.2872480372     0.8390574521
Bq         1.5189345681    -0.1734267650     0.0743072593
Bq         1.2878247892    -0.3014756962     0.9346512262
Bq         1.5446134324    -0.1591991060    -0.0212865148
Bq         1.4162191108    -0.2303374011     0.4566823557
Bq         1.3868491960    -0.1455823661     0.5660166694
Bq         1.4382069246    -0.1171270480     0.3748291212
Bq         1.3611703316    -0.1598100251     0.6616104435
Bq         1.4638857889    -0.1028993890     0.2792353471
Bq         1.3354914673    -0.1740376842     0.7572042176
Bq         1.4895646532    -0.0886717300     0.1836415730
Bq         1.3098126030    -0.1882653432     0.8527979917
Bq         1.5152435176    -0.0744440710     0.0880477989
Bq         1.2841337387    -0.2024930022     0.9483917658
Bq         1.5409223819    -0.0602164119    -0.0075459752
Bq         1.4125280603    -0.1313547071     0.4704228953
Bq         1.3831581454    -0.0465996721     0.5797572089
Bq         1.4345158741    -0.0181443540     0.3885696607
Bq         1.3574792811    -0.0608273311     0.6753509830
Bq         1.4601947384    -0.0039166950     0.2929758866
Bq         1.3318004168    -0.0750549901     0.7709447571
Bq         1.4858736027     0.0103109641     0.1973821126
Bq         1.3061215525    -0.0892826491     0.8665385312
Bq         1.5115524670     0.0245386231     0.1017883385
Bq         1.2804426881    -0.1035103082     0.9621323053
Bq         1.5372313314     0.0387662821     0.0061945644
Bq         1.4088370097    -0.0323720130     0.4841634348
Bq         1.3794670949     0.0523830220     0.5934977485
Bq         1.4308248235     0.0808383400     0.4023102003
Bq         1.3537882306     0.0381553629     0.6890915226
Bq         1.4565036879     0.0950659991     0.3067164262
Bq         1.3281093662     0.0239277039     0.7846852967
Bq         1.4821825522     0.1092936581     0.2111226521
Bq         1.3024305019     0.0097000449     0.8802790708
Bq         1.5078614165     0.1235213171     0.1155288780
Bq         1.2767516376    -0.0045276141     0.9758728449
Bq         1.5335402808     0.1377489761     0.0199351039
Bq         1.4051459592     0.0666106810     0.4979039744
Bq         1.3757760443     0.1513657160     0.6072382881
Bq         1.4271337730     0.1798210341     0.4160507399
Bq         1.3500971800     0.1371380570     0.7028320621
Bq         1.4528126373     0.1940486931     0.3204569658
Bq         1.3244183157     0.1229103980     0.7984258362
Bq         1.4784915016     0.2082763521     0.2248631917
Bq         1.2987394514     0.1086827389     0.8940196103
Bq         1.5041703660     0.2225040112     0.1292694176
Bq         1.2730605871     0.0944550799     0.9896133844
Bq         1.5298492303     0.2367316702     0.0336756435
Bq         1.4014549087     0.1655933750     0.5116445140
Bq         1.3720849938     0.2503484100     0.6209788276
Bq         1.4234427225     0.2788037281     0.4297912794
Bq         1.3464061295     0.2361207510     0.7165726017
Bq         1.4491215868     0.2930313871     0.3341975053
Bq         1.3207272652     0.2218930920     0.8121663758
Bq         1.4748004511     0.3072590462     0.2386037312
Bq         1.2950484008     0.2076654330     0.9077601499
Bq         1.5004793154     0.3214867052     0.1430099571
Bq         1.2693695365     0.1934377739     1.0033539240
Bq         1.5261581797     0.3357143642     0.0474161830
Bq         1.3977638581     0.2645760691     0.5253850535
Bq         1.3683939433     0.3493311041     0.6347193672
Bq         1.4197516719     0.3777864221     0.4435318190
Bq         1.3427150790     0.3351034451     0.7303131413
Bq         1.4454305362     0.3920140812     0.3479380449
Bq         1.3170362146     0.3208757860     0.8259069154
Bq         1.4711094006     0.4062417402     0.2523442708
Bq         1.2913573503     0.3066481270     0.9215006895
Bq         1.4967882649     0.4204693992     0.1567504967
Bq         1.2656784860     0.2924204680     1.0170944635
Bq         1.5224671292     0.4346970583     0.0611567226
Bq         1.3940728076     0.3635587631     0.5391255931
Bq         1.3647028927     0.4483137981     0.6484599067
Bq         1.4160606214     0.4767691162     0.4572723585
Bq         1.3390240284     0.4340861391     0.7440536808
Bq         1.4417394857     0.4909967752     0.3616785844
Bq         1.3133451641     0.4198584801     0.8396474549
Bq         1.4674183500     0.5052244342     0.2660848103
Bq         1.2876662998     0.4056308210     0.9352412290
Bq         1.4930972144     0.5194520933     0.1704910363
Bq         1.2619874355     0.3914031620     1.0308350031
Bq         1.5187760787     0.5336797523     0.0748972622
Bq         1.3903817571     0.4625414571     0.5528661326
Bq         1.3610118422     0.5472964922     0.6622004463
Bq         1.4123695709     0.5757518102     0.4710128981
Bq         1.3353329779     0.5330688331     0.7577942204
Bq         1.4380484352     0.5899794692     0.3754191240
Bq         1.3096541136     0.5188411741     0.8533879945
Bq         1.4637272995     0.6042071283     0.2798253499
Bq         1.2839752492     0.5046135151     0.9489817686
Bq         1.4894061638     0.6184347873     0.1842315758
Bq         1.2582963849     0.4903858560     1.0445755427
Bq         1.5150850281     0.6326624463     0.0886378017
Bq         1.3866907065     0.5615241512     0.5666066722
Bq         1.3573207917     0.6462791862     0.6759409858
Bq         1.4086785203     0.6747345042     0.4847534377
Bq         1.3316419273     0.6320515272     0.7715347599
Bq         1.4343573846     0.6889621633     0.3891596636
Bq         1.3059630630     0.6178238681     0.8671285340
Bq         1.4600362490     0.7031898223     0.2935658895
Bq         1.2802841987     0.6035962091     0.9627223081
Bq         1.4857151133     0.7174174813     0.1979721154
Bq         1.2546053344     0.5893685501     1.0583160822
Bq         1.5113939776     0.7316451404     0.1023783413
Bq         1.3829996560     0.6605068452     0.5803472118
Bq         1.3536297411     0.7452618802     0.6896815254
Bq         1.4049874698     0.7737171983     0.4984939772
Bq         1.3279508768     0.7310342212     0.7852752995
Bq         1.4306663341     0.7879448573     0.4029002031
Bq         1.3022720125     0.7168065622     0.8808690736
Bq         1.4563451984     0.8021725163     0.3073064290
Bq         1.2765931482     0.7025789031     0.9764628477
Bq         1.4820240627     0.8164001754     0.2117126549
Bq         1.2509142838     0.6883512441     1.0720566218
Bq         1.5077029271     0.8306278344     0.1161188808
Bq         1.3793086055     0.7594895393     0.5940877513
Bq         1.3499386906     0.8442445743     0.7034220650
Bq         1.4012964192     0.8726998923     0.5122345168
Bq         1.3242598263     0.8300169152     0.7990158391
Bq         1.4269752836     0.8869275513     0.4166407427
Bq         1.2985809620     0.8157892562     0.8946096132
Bq         1.4526541479     0.9011552104     0.3210469686
Bq         1.2729020976     0.8015615972     0.9902033872
Bq         1.4783330122     0.9153828694     0.2254531945
Bq         1.2472232333     0.7873339381     1.0857971613
Bq         1.5040118765     0.9296105284     0.1298594204
Bq         1.3756175549     0.8584722333     0.6078282909
Bq         1.3462476401     0.9432272683     0.7171626045
Bq         1.3976053687     0.9716825864     0.5259750563
Bq         1.3205687757     0.9289996093     0.8127563786
Bq         1.4232842330     0.9859102454     0.4303812822
Bq         1.2948899114     0.9147719502     0.9083501527
Bq         1.4489630974     1.0001379044     0.3347875081
Bq         1.2692110471     0.9005442912     1.0039439268
Bq         1.4746419617     1.0143655634     0.2391937340
Bq         1.2435321828     0.8863166322     1.0995377009
Bq         1.5003208260     1.0285932225     0.1435999600
Bq         1.3719265044     0.9574549273     0.6215688304
Bq         1.3425565895     1.0422099623     0.7309031441
Bq         1.3939143182     1.0706652804     0.5397155959
Bq         1.3168777252     1.0279823033     0.8264969182
Bq         1.4195931825     1.0848929394     0.4441218218
Bq         1.2911988609     1.0137546443     0.9220906923
Bq         1.4452720468     1.0991205984     0.3485280477
Bq         1.2655199966     0.9995269852     1.0176844664
Bq         1.4709509111     1.1133482575     0.2529342736
Bq         1.2398411322     0.9852993262     1.1132782405
Bq         1.4966297755     1.1275759165     0.1573404995
Bq         1.3682354539     1.0564376214     0.6353093700
Bq         1.3388655390     1.1411926564     0.7446436836
Bq         1.3902232676     1.1696479744     0.5534561355
Bq         1.3131866747     1.1269649973     0.8402374577
Bq         1.4159021320     1.1838756335     0.4578623614
Bq         1.2875078104     1.1127373383     0.9358312318
Bq         1.4415809963     1.1981032925     0.3622685873
Bq         1.2618289460     1.0985096793     1.0314250059
Bq         1.4672598606     1.2123309515     0.2666748132
Bq         1.2361500817     1.0842820203     1.1270187800
Bq         1.4929387249     1.2265586105     0.1710810391
Bq         1.3645444033     1.1554203154     0.6490499095
Bq         1.3351744885     1.2401753504     0.7583842232
Bq         1.3865322171     1.2686306685     0.5671966750
Bq         1.3094956241     1.2259476914     0.8539779973
Bq         1.4122110814     1.2828583275     0.4716029009
Bq         1.2838167598     1.2117200323     0.9495717714
Bq         1.4378899457     1.2970859865     0.3760091268
Bq         1.2581378955     1.1974923733     1.0451655455
Bq         1.4635688101     1.3113136455     0.2804153527
Bq         1.2324590312     1.1832647143     1.1407593196
Bq         1.4892476744     1.3255413046     0.1848215786
Bq         1.3608533528     1.2544030094     0.6627904491

1
2
3
4
5
6
7
8
9
10
11
12
13
14
15
16
17
18
19
20
21
22
23
24
25
26
27
28
29
30
31
32
33
34
35
36
37
38
39
40
41
42
43
44
45
46
47
48
49
50
51
52
53
54
55
56
57
58
59
60
61
62
63
64
65
66
67
68
69
70
71
72
73
74
75
76
77
78
79
80
81
82
83
84
85
86
87
88
89
90
91
92
93
94
95
96
97
98
99
100
101
102
103
104
105
106
107
108
109
110
111
112
113
114
115
116
117
118
119
120
121
122
123
124
125
126
127
128
129
130
131
132
133
134
135
136
137
138
139
140
141
142
143
144
145
146
147
148
149
150
151
152
153
154
155
156
157
158
159
160
161
162
163
164
165
166
167
168
169
170
171
172
173
174
175
176
177
178
179
180
181
182
183
184
185
186
187
188
189
190
191
192
193
194
195
196
197
198
199
200
201
202
203
204
205
206
207
208
209
210
211
212
213
214
215
216
217
218
219
220
221
222
223
224
225
226
227
228
229
230
231
232
233
234
235
236

