%nproc=8
%mem=1000MB
# rb3lyp/6-311+g** NMR geom=connectivity

Title

0 1
C    -4.0500558   -0.5771862    0.8136712
H    -5.0263804   -1.0082727    1.0024760
C    -3.9381552    0.6617804    0.2400876
H    -4.8252424    1.2338890   -0.0111295
C    -2.6768410    1.2433246    0.0057578
C    -1.4974121    0.5051527    0.2848253
C    -1.6508332   -0.7338728    0.9404026
H    -0.7713646   -1.2730967    1.2633753
C    -2.8898548   -1.2624035    1.1994307
H    -2.9683706   -2.2124563    1.7152676
C    -2.5773185    2.5963696   -0.4192930
H    -3.4870728    3.1412239   -0.6474055
C    -1.3741895    3.2147896   -0.4364030
H    -1.2997315    4.2742019   -0.6578144
C    -0.1719488    2.4994090   -0.1734588
C    -0.2043917    1.1018437    0.0192689
C     1.0513491    3.2042560   -0.0676222
H     1.0427344    4.2819499   -0.1896997
C     2.1942091    2.5487446    0.2579577
H     3.1168527    3.0912848    0.4334727
C     2.2216473    1.1336562    0.2934990
C     1.0486931    0.3945528    0.0302412
C     3.4483363    0.4614633    0.5573939
H     4.3095794    1.0606054    0.8334846
C     3.5427346   -0.8855926    0.4749463
H     4.4731467   -1.3939704    0.7038822
C     2.4490052   -1.6474447   -0.0196319
C     1.2150704   -1.0057258   -0.3013573
C     0.2531113   -1.7434440   -1.0216591
H    -0.6541356   -1.2535051   -1.3462847
C     0.4494193   -3.0628597   -1.3413779
H    -0.3083162   -3.5944309   -1.9054060
C     1.6251726   -3.7207967   -0.9552541
H     1.7670048   -4.7687404   -1.1927019
C     2.6109872   -3.0144177   -0.3183050
H     3.5525612   -3.4902813   -0.0646367
Bq        -3.0312772747     0.7214195341     0.2079279994
Bq        -3.0658551066     0.9423633905     1.0797010122
Bq        -3.0274352934     0.6968702167     0.1110643313
Bq        -3.0466452000     0.8196168036     0.5953826718
Bq        -3.0495142271     0.9411059529     0.6677163104
Bq        -3.0418302644     0.8920073182     0.4739889742
Bq        -3.0533562084     0.9656552703     0.7645799785
Bq        -3.0379882831     0.8674580008     0.3771253061
Bq        -3.0571981898     0.9902045877     0.8614436466
Bq        -3.0341463018     0.8429086834     0.2802616381
Bq        -3.0610401711     1.0147539051     0.9583073147
Bq        -3.0303043205     0.8183593660     0.1833979700
Bq        -3.0648821524     1.0393032224     1.0551709828
Bq        -3.0264623391     0.7938100487     0.0865343019
Bq        -3.0456722458     0.9165566355     0.5708526423
Bq        -3.0485412729     1.0380457849     0.6431862810
Bq        -3.0408573102     0.9889471501     0.4494589448
Bq        -3.0523832542     1.0625951022     0.7400499491
Bq        -3.0370153289     0.9643978327     0.3525952767
Bq        -3.0562252355     1.0871444196     0.8369136172
Bq        -3.0331733476     0.9398485154     0.2557316086
Bq        -3.0600672169     1.1116937370     0.9337772853
Bq        -3.0293313662     0.9152991980     0.1588679405
Bq        -3.0639091982     1.1362430544     1.0306409533
Bq        -3.0254893849     0.8907498806     0.0620042724
Bq        -3.0446992916     1.0134964675     0.5463226129
Bq        -3.0475683187     1.1349856168     0.6186562516
Bq        -3.0398843560     1.0858869821     0.4249289154
Bq        -3.0514103000     1.1595349342     0.7155199196
Bq        -3.0360423747     1.0613376647     0.3280652473
Bq        -3.0552522813     1.1840842516     0.8123835877
Bq        -3.0322003933     1.0367883473     0.2312015792
Bq        -3.0590942626     1.2086335689     0.9092472558
Bq        -3.0283584120     1.0122390299     0.1343379111
Bq        -3.0629362440     1.2331828863     1.0061109239
Bq        -3.0245164307     0.9876897125     0.0374742430
Bq        -3.0437263373     1.1104362994     0.5217925835
Bq        -3.0465953644     1.2319254487     0.5941262221
Bq        -3.0389114018     1.1828268140     0.4003988860
Bq        -3.0504373458     1.2564747661     0.6909898902
Bq        -3.0350694204     1.1582774966     0.3035352179
Bq        -3.0542793271     1.2810240835     0.7878535583
Bq        -3.0312274391     1.1337281792     0.2066715498
Bq        -3.0581213084     1.3055734009     0.8847172264
Bq        -3.0273854578     1.1091788619     0.1098078817
Bq        -3.0619632897     1.3301227182     0.9815808945
Bq        -3.0235434765     1.0846295445     0.0129442136
Bq        -3.0427533831     1.2073761314     0.4972625540
Bq        -3.0456224102     1.3288652807     0.5695961927
Bq        -3.0379384475     1.2797666459     0.3758688565
Bq        -3.0494643915     1.3534145981     0.6664598608
Bq        -3.0340964662     1.2552173286     0.2790051884
Bq        -3.0533063729     1.3779639154     0.7633235289
Bq        -3.0302544849     1.2306680112     0.1821415203
Bq        -3.0571483542     1.4025132328     0.8601871970
Bq        -3.0264125036     1.2061186938     0.0852778523
Bq        -3.0609903355     1.4270625502     0.9570508651
Bq        -3.0225705222     1.1815693764    -0.0115858158
Bq        -3.0417804289     1.3043159633     0.4727325246
Bq        -3.0446494560     1.4258051126     0.5450661633
Bq        -3.0369654933     1.3767064779     0.3513388271
Bq        -3.0484914373     1.4503544300     0.6419298314
Bq        -3.0331235120     1.3521571605     0.2544751590
Bq        -3.0523334186     1.4749037474     0.7387934995
Bq        -3.0292815307     1.3276078431     0.1576114909
Bq        -3.0561754000     1.4994530647     0.8356571675
Bq        -3.0254395493     1.3030585257     0.0607478228
Bq        -3.0600173813     1.5240023821     0.9325208356
Bq        -3.0215975680     1.2785092084    -0.0361158453
Bq        -3.0408074747     1.4012557952     0.4482024952
Bq        -3.0436765018     1.5227449446     0.5205361339
Bq        -3.0359925391     1.4736463098     0.3268087977
Bq        -3.0475184831     1.5472942619     0.6173998019
Bq        -3.0321505578     1.4490969924     0.2299451296
Bq        -3.0513604644     1.5718435793     0.7142634700
Bq        -3.0283085764     1.4245476751     0.1330814615
Bq        -3.0552024457     1.5963928967     0.8111271381
Bq        -3.0244665951     1.3999983577     0.0362177934
Bq        -3.0590444271     1.6209422141     0.9079908062
Bq        -3.0206246138     1.3754490403    -0.0606458747
Bq        -3.0398345204     1.4981956272     0.4236724658
Bq        -3.0427035475     1.6196847765     0.4960061044
Bq        -3.0350195849     1.5705861417     0.3022787682
Bq        -3.0465455289     1.6442340939     0.5928697725
Bq        -3.0311776035     1.5460368244     0.2054151002
Bq        -3.0503875102     1.6687834113     0.6897334406
Bq        -3.0273356222     1.5214875070     0.1085514321
Bq        -3.0542294915     1.6933327286     0.7865971087
Bq        -3.0234936409     1.4969381896     0.0116877640
Bq        -3.0580714728     1.7178820460     0.8834607768
Bq        -3.0196516596     1.4723888722    -0.0851759041
Bq        -3.0388615662     1.5951354591     0.3991424363
Bq        -3.0417305933     1.7166246084     0.4714760750
Bq        -3.0340466307     1.6675259737     0.2777487388
Bq        -3.0455725746     1.7411739258     0.5683397431
Bq        -3.0302046493     1.6429766563     0.1808850707
Bq        -3.0494145560     1.7657232432     0.6652034112
Bq        -3.0263626680     1.6184273389     0.0840214026
Bq        -3.0532565373     1.7902725606     0.7620670793
Bq        -3.0225206867     1.5938780216    -0.0128422655
Bq        -3.0570985186     1.8148218779     0.8589307474
Bq        -3.0186787053     1.5693287042    -0.1097059335
Bq        -3.0378886120     1.6920752911     0.3746124069
Bq        -3.0407576391     1.8135644404     0.4469460456
Bq        -3.0330736764     1.7644658056     0.2532187094
Bq        -3.0445996204     1.8381137578     0.5438097137
Bq        -3.0292316951     1.7399164882     0.1563550413
Bq        -3.0484416017     1.8626630751     0.6406733817
Bq        -3.0253897138     1.7153671709     0.0594913732
Bq        -3.0522835831     1.8872123925     0.7375370498
Bq        -3.0215477324     1.6908178535    -0.0373722949
Bq        -3.0561255644     1.9117617099     0.8344007179
Bq        -3.0177057511     1.6662685361    -0.1342359630
Bq        -3.0369156578     1.7890151230     0.3500823775
Bq        -3.0397846849     1.9105042723     0.4224160161
Bq        -3.0321007222     1.8614056376     0.2286886800
Bq        -3.0436266662     1.9350535897     0.5192796842
Bq        -3.0282587409     1.8368563202     0.1318250119
Bq        -3.0474686475     1.9596029071     0.6161433523
Bq        -3.0244167595     1.8123070028     0.0349613438
Bq        -3.0513106288     1.9841522244     0.7130070204
Bq        -3.0205747782     1.7877576854    -0.0619023243
Bq        -3.0551526102     2.0087015418     0.8098706885
Bq        -3.0167327969     1.7632083681    -0.1587659924
Bq        -3.0359427035     1.8859549549     0.3255523481
Bq        -3.0388117306     2.0074441043     0.3978859867
Bq        -3.0311277680     1.9583454695     0.2041586505
Bq        -3.0426537120     2.0319934216     0.4947496548
Bq        -3.0272857866     1.9337961521     0.1072949824
Bq        -3.0464956933     2.0565427390     0.5916133229
Bq        -3.0234438053     1.9092468348     0.0104313144
Bq        -3.0503376746     2.0810920564     0.6884769910
Bq        -3.0196018240     1.8846975174    -0.0864323537
Bq        -3.0541796560     2.1056413738     0.7853406591
Bq        -3.0157598427     1.8601482000    -0.1832960218
Bq        -3.0349697493     1.9828947869     0.3010223186
Bq        -3.0378387764     2.1043839362     0.3733559573
Bq        -3.0301548138     2.0552853014     0.1796286211
Bq        -3.0416807577     2.1289332536     0.4702196254
Bq        -3.0263128324     2.0307359841     0.0827649530
Bq        -3.0455227391     2.1534825709     0.5670832935
Bq        -3.0224708511     2.0061866667    -0.0140987151
Bq        -3.0493647204     2.1780318883     0.6639469616
Bq        -3.0186288698     1.9816373493    -0.1109623832
Bq        -3.0532067017     2.2025812057     0.7608106296
Bq        -3.0147868884     1.9570880319    -0.2078260513
Bq        -3.0339967951     2.0798346188     0.2764922892
Bq        -3.0368658222     2.2013237681     0.3488259279
Bq        -3.0291818595     2.1522251334     0.1550985917
Bq        -3.0407078035     2.2258730855     0.4456895960
Bq        -3.0253398782     2.1276758160     0.0582349236
Bq        -3.0445497848     2.2504224029     0.5425532640
Bq        -3.0214978969     2.1031264986    -0.0386287445
Bq        -3.0483917662     2.2749717203     0.6394169321
Bq        -3.0176559155     2.0785771813    -0.1354924126
Bq        -3.0522337475     2.2995210376     0.7362806002
Bq        -3.0138139342     2.0540278639    -0.2323560807
Bq        -3.0330238409     2.1767744508     0.2519622598
Bq        -3.0358928680     2.2982636001     0.3242958984
Bq        -3.0282089053     2.2491649653     0.1305685623
Bq        -3.0397348493     2.3228129174     0.4211595665
Bq        -3.0243669240     2.2246156479     0.0337048942
Bq        -3.0435768306     2.3473622348     0.5180232346
Bq        -3.0205249426     2.2000663306    -0.0631587739
Bq        -3.0474188119     2.3719115522     0.6148869027
Bq        -3.0166829613     2.1755170132    -0.1600224420
Bq        -3.0512607933     2.3964608696     0.7117505708
Bq        -3.0128409800     2.1509676958    -0.2568861101
Bq        -3.0320508866     2.2737142827     0.2274322303
Bq        -3.0349199137     2.3952034320     0.2997658690
Bq        -3.0272359511     2.3461047973     0.1060385328
Bq        -3.0387618951     2.4197527494     0.3966295371
Bq        -3.0233939697     2.3215554799     0.0091748647
Bq        -3.0426038764     2.4443020668     0.4934932052
Bq        -3.0195519884     2.2970061625    -0.0876888034
Bq        -3.0464458577     2.4688513841     0.5903568733
Bq        -3.0157100071     2.2724568451    -0.1845524714
Bq        -3.0502878391     2.4934007015     0.6872205414
Bq        -3.0118680258     2.2479075278    -0.2814161395
Bq        -3.0310779324     2.3706541146     0.2029022009
Bq        -3.0339469595     2.4921432640     0.2752358396
Bq        -3.0262629969     2.4430446292     0.0815085034
Bq        -3.0377889408     2.5166925813     0.3720995077
Bq        -3.0224210155     2.4184953118    -0.0153551647
Bq        -3.0416309222     2.5412418987     0.4689631758
Bq        -3.0185790342     2.3939459944    -0.1122188328
Bq        -3.0454729035     2.5657912161     0.5658268438
Bq        -3.0147370529     2.3693966771    -0.2090825009
Bq        -3.0493148848     2.5903405335     0.6626905119
Bq        -3.0108950715     2.3448473597    -0.3059461690
Bq        -3.0301049782     2.4675939466     0.1783721715
Bq        -3.0329740053     2.5890830959     0.2507058102
Bq        -3.0252900426     2.5399844611     0.0569784740
Bq        -3.0368159866     2.6136324133     0.3475694782
Bq        -3.0214480613     2.5154351438    -0.0398851941
Bq        -3.0406579679     2.6381817306     0.4444331463
Bq        -3.0176060800     2.4908858264    -0.1367488622
Bq        -3.0444999493     2.6627310480     0.5412968144
Bq        -3.0137640986     2.4663365090    -0.2336125303
Bq        -3.0483419306     2.6872803654     0.6381604825

1
2
3
4
5
6
7
8
9
10
11
12
13
14
15
16
17
18
19
20
21
22
23
24
25
26
27
28
29
30
31
32
33
34
35
36
37
38
39
40
41
42
43
44
45
46
47
48
49
50
51
52
53
54
55
56
57
58
59
60
61
62
63
64
65
66
67
68
69
70
71
72
73
74
75
76
77
78
79
80
81
82
83
84
85
86
87
88
89
90
91
92
93
94
95
96
97
98
99
100
101
102
103
104
105
106
107
108
109
110
111
112
113
114
115
116
117
118
119
120
121
122
123
124
125
126
127
128
129
130
131
132
133
134
135
136
137
138
139
140
141
142
143
144
145
146
147
148
149
150
151
152
153
154
155
156
157
158
159
160
161
162
163
164
165
166
167
168
169
170
171
172
173
174
175
176
177
178
179
180
181
182
183
184
185
186
187
188
189
190
191
192
193
194
195
196
197
198
199
200
201
202
203
204
205
206
207
208
209
210
211
212
213
214
215
216
217
218
219
220
221
222
223
224
225
226
227
228
229
230
231
232
233
234
235
236

