%nproc=8
%mem=1000MB
# rb3lyp/6-311+g** NMR geom=connectivity

Title

0 1
C    -4.0500558   -0.5771862    0.8136712
H    -5.0263804   -1.0082727    1.0024760
C    -3.9381552    0.6617804    0.2400876
H    -4.8252424    1.2338890   -0.0111295
C    -2.6768410    1.2433246    0.0057578
C    -1.4974121    0.5051527    0.2848253
C    -1.6508332   -0.7338728    0.9404026
H    -0.7713646   -1.2730967    1.2633753
C    -2.8898548   -1.2624035    1.1994307
H    -2.9683706   -2.2124563    1.7152676
C    -2.5773185    2.5963696   -0.4192930
H    -3.4870728    3.1412239   -0.6474055
C    -1.3741895    3.2147896   -0.4364030
H    -1.2997315    4.2742019   -0.6578144
C    -0.1719488    2.4994090   -0.1734588
C    -0.2043917    1.1018437    0.0192689
C     1.0513491    3.2042560   -0.0676222
H     1.0427344    4.2819499   -0.1896997
C     2.1942091    2.5487446    0.2579577
H     3.1168527    3.0912848    0.4334727
C     2.2216473    1.1336562    0.2934990
C     1.0486931    0.3945528    0.0302412
C     3.4483363    0.4614633    0.5573939
H     4.3095794    1.0606054    0.8334846
C     3.5427346   -0.8855926    0.4749463
H     4.4731467   -1.3939704    0.7038822
C     2.4490052   -1.6474447   -0.0196319
C     1.2150704   -1.0057258   -0.3013573
C     0.2531113   -1.7434440   -1.0216591
H    -0.6541356   -1.2535051   -1.3462847
C     0.4494193   -3.0628597   -1.3413779
H    -0.3083162   -3.5944309   -1.9054060
C     1.6251726   -3.7207967   -0.9552541
H     1.7670048   -4.7687404   -1.1927019
C     2.6109872   -3.0144177   -0.3183050
H     3.5525612   -3.4902813   -0.0646367
Bq        -2.9505159139     1.2564747661     0.6949531541
Bq        -2.9351479886     1.1582774966     0.3074984817
Bq        -2.9543578953     1.2810240835     0.7918168222
Bq        -2.9313060073     1.1337281792     0.2106348136
Bq        -2.9581998766     1.3055734009     0.8886804903
Bq        -2.9274640260     1.1091788619     0.1137711455
Bq        -2.9620418579     1.3301227182     0.9855441584
Bq        -2.9236220446     1.0846295445     0.0169074775
Bq        -2.9428319513     1.2073761314     0.5012258179
Bq        -2.9457009784     1.3288652807     0.5735594566
Bq        -2.9380170157     1.2797666459     0.3798321204
Bq        -2.9495429597     1.3534145981     0.6704231247
Bq        -2.9341750344     1.2552173286     0.2829684523
Bq        -2.9533849410     1.3779639154     0.7672867927
Bq        -2.9303330531     1.2306680112     0.1861047842
Bq        -2.9572269224     1.4025132328     0.8641504608
Bq        -2.9264910717     1.2061186938     0.0892411161
Bq        -2.9610689037     1.4270625502     0.9610141289
Bq        -2.9226490904     1.1815693764    -0.0076225520
Bq        -2.9418589970     1.3043159633     0.4766957885
Bq        -2.9447280241     1.4258051126     0.5490294271
Bq        -2.9370440615     1.3767064779     0.3553020910
Bq        -2.9485700055     1.4503544300     0.6458930952
Bq        -2.9332020802     1.3521571605     0.2584384229
Bq        -2.9524119868     1.4749037474     0.7427567633
Bq        -2.9293600988     1.3276078431     0.1615747548
Bq        -2.9562539681     1.4994530647     0.8396204314
Bq        -2.9255181175     1.3030585257     0.0647110867
Bq        -2.9600959495     1.5240023821     0.9364840995
Bq        -2.9216761362     1.2785092084    -0.0321525814
Bq        -2.9408860428     1.4012557952     0.4521657591
Bq        -2.9437550699     1.5227449446     0.5244993977
Bq        -2.9360711073     1.4736463098     0.3307720615
Bq        -2.9475970513     1.5472942619     0.6213630658
Bq        -2.9322291259     1.4490969924     0.2339083934
Bq        -2.9514390326     1.5718435793     0.7182267339
Bq        -2.9283871446     1.4245476751     0.1370447254
Bq        -2.9552810139     1.5963928967     0.8150904020
Bq        -2.9245451633     1.3999983577     0.0401810573
Bq        -2.9591229952     1.6209422141     0.9119540701
Bq        -2.9207031819     1.3754490403    -0.0566826108
Bq        -2.9399130886     1.4981956272     0.4276357296
Bq        -2.9427821157     1.6196847765     0.4999693683
Bq        -2.9350981530     1.5705861417     0.3062420321
Bq        -2.9466240970     1.6442340939     0.5968330364
Bq        -2.9312561717     1.5460368244     0.2093783640
Bq        -2.9504660784     1.6687834113     0.6936967045
Bq        -2.9274141904     1.5214875070     0.1125146959
Bq        -2.9543080597     1.6933327286     0.7905603726
Bq        -2.9235722091     1.4969381896     0.0156510278
Bq        -2.9581500410     1.7178820460     0.8874240406
Bq        -2.9197302277     1.4723888722    -0.0812126403
Bq        -2.9389401344     1.5951354591     0.4031057002
Bq        -2.9418091615     1.7166246084     0.4754393389
Bq        -2.9341251988     1.6675259737     0.2817120027
Bq        -2.9456511428     1.7411739258     0.5723030070
Bq        -2.9302832175     1.6429766563     0.1848483346
Bq        -2.9494931241     1.7657232432     0.6691666750
Bq        -2.9264412362     1.6184273389     0.0879846665
Bq        -2.9533351055     1.7902725606     0.7660303431
Bq        -2.9225992548     1.5938780216    -0.0088790016
Bq        -2.9571770868     1.8148218779     0.8628940112
Bq        -2.9187572735     1.5693287042    -0.1057426697
Bq        -2.9379671801     1.6920752911     0.3785756708
Bq        -2.9408362073     1.8135644404     0.4509093094
Bq        -2.9331522446     1.7644658056     0.2571819733
Bq        -2.9446781886     1.8381137578     0.5477729775
Bq        -2.9293102633     1.7399164882     0.1603183052
Bq        -2.9485201699     1.8626630751     0.6446366456
Bq        -2.9254682819     1.7153671709     0.0634546371
Bq        -2.9523621512     1.8872123925     0.7415003137
Bq        -2.9216263006     1.6908178535    -0.0334090310
Bq        -2.9562041326     1.9117617099     0.8383639818
Bq        -2.9177843193     1.6662685361    -0.1302726991
Bq        -2.9369942259     1.7890151230     0.3540456413
Bq        -2.9398632530     1.9105042723     0.4263792800
Bq        -2.9321792904     1.8614056376     0.2326519438
Bq        -2.9437052344     1.9350535897     0.5232429481
Bq        -2.9283373090     1.8368563202     0.1357882757
Bq        -2.9475472157     1.9596029071     0.6201066162
Bq        -2.9244953277     1.8123070028     0.0389246076
Bq        -2.9513891970     1.9841522244     0.7169702843
Bq        -2.9206533464     1.7877576854    -0.0579390604
Bq        -2.9552311783     2.0087015418     0.8138339524
Bq        -2.9168113651     1.7632083681    -0.1548027285
Bq        -2.9360212717     1.8859549549     0.3295156119
Bq        -2.9388902988     2.0074441043     0.4018492506
Bq        -2.9312063361     1.9583454695     0.2081219144
Bq        -2.9427322801     2.0319934216     0.4987129187
Bq        -2.9273643548     1.9337961521     0.1112582463
Bq        -2.9465742615     2.0565427390     0.5955765868
Bq        -2.9235223735     1.9092468348     0.0143945782
Bq        -2.9504162428     2.0810920564     0.6924402548
Bq        -2.9196803922     1.8846975174    -0.0824690899
Bq        -2.9542582241     2.1056413738     0.7893039229
Bq        -2.9158384108     1.8601482000    -0.1793327580
Bq        -2.9350483175     1.9828947869     0.3049855825
Bq        -2.9379173446     2.1043839362     0.3773192212
Bq        -2.9302333819     2.0552853014     0.1835918850
Bq        -2.9417593259     2.1289332536     0.4741828892
Bq        -2.9263914006     2.0307359841     0.0867282169
Bq        -2.9456013072     2.1534825709     0.5710465573
Bq        -2.9225494193     2.0061866667    -0.0101354512
Bq        -2.9494432886     2.1780318883     0.6679102254
Bq        -2.9187074379     1.9816373493    -0.1069991193
Bq        -2.9532852699     2.2025812057     0.7647738935
Bq        -2.9148654566     1.9570880319    -0.2038627874
Bq        -2.9340753632     2.0798346188     0.2804555531
Bq        -2.9369443904     2.2013237681     0.3527891917
Bq        -2.9292604277     2.1522251334     0.1590618555
Bq        -2.9407863717     2.2258730855     0.4496528598
Bq        -2.9254184464     2.1276758160     0.0621981875
Bq        -2.9446283530     2.2504224029     0.5465165279
Bq        -2.9215764650     2.1031264986    -0.0346654806
Bq        -2.9484703343     2.2749717203     0.6433801960
Bq        -2.9177344837     2.0785771813    -0.1315291487
Bq        -2.9523123157     2.2995210376     0.7402438641
Bq        -2.9138925024     2.0540278639    -0.2283928168
Bq        -2.9331024090     2.1767744508     0.2559255236
Bq        -2.9359714361     2.2982636001     0.3282591623
Bq        -2.9282874735     2.2491649653     0.1345318261
Bq        -2.9398134175     2.3228129174     0.4251228304
Bq        -2.9244454921     2.2246156479     0.0376681580
Bq        -2.9436553988     2.3473622348     0.5219864985
Bq        -2.9206035108     2.2000663306    -0.0591955101
Bq        -2.9474973801     2.3719115522     0.6188501666
Bq        -2.9167615295     2.1755170132    -0.1560591782
Bq        -2.9513393614     2.3964608696     0.7157138347
Bq        -2.9129195482     2.1509676958    -0.2529228462
Bq        -2.9321294548     2.2737142827     0.2313954942
Bq        -2.9349984819     2.3952034320     0.3037291329
Bq        -2.9273145192     2.3461047973     0.1100017967
Bq        -2.9388404632     2.4197527494     0.4005928010
Bq        -2.9234725379     2.3215554799     0.0131381286
Bq        -2.9426824446     2.4443020668     0.4974564691
Bq        -2.9196305566     2.2970061625    -0.0837255395
Bq        -2.9465244259     2.4688513841     0.5943201371
Bq        -2.9157885753     2.2724568451    -0.1805892076
Bq        -2.9503664072     2.4934007015     0.6911838052
Bq        -2.9119465939     2.2479075278    -0.2774528757
Bq        -2.9311565006     2.3706541146     0.2068654648
Bq        -2.9340255277     2.4921432640     0.2791991034
Bq        -2.9263415650     2.4430446292     0.0854717673
Bq        -2.9378675090     2.5166925813     0.3760627715
Bq        -2.9224995837     2.4184953118    -0.0113919008
Bq        -2.9417094903     2.5412418987     0.4729264396
Bq        -2.9186576024     2.3939459944    -0.1082555689
Bq        -2.9455514717     2.5657912161     0.5697901077
Bq        -2.9148156210     2.3693966771    -0.2051192370
Bq        -2.9493934530     2.5903405335     0.6666537758
Bq        -2.9109736397     2.3448473597    -0.3019829051
Bq        -2.9301835464     2.4675939466     0.1823354354
Bq        -2.9330525735     2.5890830959     0.2546690740
Bq        -2.9253686108     2.5399844611     0.0609417378
Bq        -2.9368945548     2.6136324133     0.3515327421
Bq        -2.9215266295     2.5154351438    -0.0359219303
Bq        -2.9407365361     2.6381817306     0.4483964102
Bq        -2.9176846481     2.4908858264    -0.1327855983
Bq        -2.9445785174     2.6627310480     0.5452600783
Bq        -2.9138426668     2.4663365090    -0.2296492664
Bq        -2.9484204988     2.6872803654     0.6421237464
Bq        -2.9100006855     2.4417871916    -0.3265129345
Bq        -2.9292105921     2.5645337785     0.1578054059
Bq        -2.9320796192     2.6860229278     0.2301390446
Bq        -2.9243956566     2.6369242931     0.0364117084
Bq        -2.9359216006     2.7105722452     0.3270027127
Bq        -2.9205536752     2.6123749757    -0.0604519597
Bq        -2.9397635819     2.7351215626     0.4238663808
Bq        -2.9167116939     2.5878256583    -0.1573156278
Bq        -2.9436055632     2.7596708800     0.5207300489
Bq        -2.9128697126     2.5632763409    -0.2541792959
Bq        -2.9474475445     2.7842201973     0.6175937169
Bq        -2.9090277313     2.5387270236    -0.3510429640
Bq        -2.9282376379     2.6614736105     0.1332753765
Bq        -2.9311066650     2.7829627598     0.2056090152
Bq        -2.9234227023     2.7338641250     0.0118816790
Bq        -2.9349486463     2.8075120771     0.3024726833
Bq        -2.9195807210     2.7093148076    -0.0849819891
Bq        -2.9387906277     2.8320613945     0.3993363513
Bq        -2.9157387397     2.6847654903    -0.1818456572
Bq        -2.9426326090     2.8566107119     0.4962000194
Bq        -2.9118967584     2.6602161729    -0.2787093253
Bq        -2.9464745903     2.8811600293     0.5930636875
Bq        -2.9080547770     2.6356668555    -0.3755729934
Bq        -2.9272646837     2.7584134424     0.1087453471
Bq        -2.9301337108     2.8799025917     0.1810789857
Bq        -2.9224497481     2.8308039570    -0.0126483504
Bq        -2.9339756921     2.9044519091     0.2779426538
Bq        -2.9186077668     2.8062546396    -0.1095120185
Bq        -2.9378176734     2.9290012265     0.3748063219
Bq        -2.9147657855     2.7817053222    -0.2063756866
Bq        -2.9416596548     2.9535505438     0.4716699900
Bq        -2.9109238041     2.7571560048    -0.3032393547
Bq        -2.9455016361     2.9780998612     0.5685336581
Bq        -2.9070818228     2.7326066875    -0.4001030228
Bq        -2.9262917295     2.8553532743     0.0842153176
Bq        -2.9291607566     2.9768424236     0.1565489563
Bq        -2.9214767939     2.9277437889    -0.0371783799
Bq        -2.9330027379     3.0013917410     0.2534126244
Bq        -2.9176348126     2.9031944715    -0.1340420480

1
2
3
4
5
6
7
8
9
10
11
12
13
14
15
16
17
18
19
20
21
22
23
24
25
26
27
28
29
30
31
32
33
34
35
36
37
38
39
40
41
42
43
44
45
46
47
48
49
50
51
52
53
54
55
56
57
58
59
60
61
62
63
64
65
66
67
68
69
70
71
72
73
74
75
76
77
78
79
80
81
82
83
84
85
86
87
88
89
90
91
92
93
94
95
96
97
98
99
100
101
102
103
104
105
106
107
108
109
110
111
112
113
114
115
116
117
118
119
120
121
122
123
124
125
126
127
128
129
130
131
132
133
134
135
136
137
138
139
140
141
142
143
144
145
146
147
148
149
150
151
152
153
154
155
156
157
158
159
160
161
162
163
164
165
166
167
168
169
170
171
172
173
174
175
176
177
178
179
180
181
182
183
184
185
186
187
188
189
190
191
192
193
194
195
196
197
198
199
200
201
202
203
204
205
206
207
208
209
210
211
212
213
214
215
216
217
218
219
220
221
222
223
224
225
226
227
228
229
230
231
232
233
234
235
236

