%nproc=8
%mem=1000MB
# rb3lyp/6-311+g** NMR geom=connectivity

Title

0 1
C    -4.0500558   -0.5771862    0.8136712
H    -5.0263804   -1.0082727    1.0024760
C    -3.9381552    0.6617804    0.2400876
H    -4.8252424    1.2338890   -0.0111295
C    -2.6768410    1.2433246    0.0057578
C    -1.4974121    0.5051527    0.2848253
C    -1.6508332   -0.7338728    0.9404026
H    -0.7713646   -1.2730967    1.2633753
C    -2.8898548   -1.2624035    1.1994307
H    -2.9683706   -2.2124563    1.7152676
C    -2.5773185    2.5963696   -0.4192930
H    -3.4870728    3.1412239   -0.6474055
C    -1.3741895    3.2147896   -0.4364030
H    -1.2997315    4.2742019   -0.6578144
C    -0.1719488    2.4994090   -0.1734588
C    -0.2043917    1.1018437    0.0192689
C     1.0513491    3.2042560   -0.0676222
H     1.0427344    4.2819499   -0.1896997
C     2.1942091    2.5487446    0.2579577
H     3.1168527    3.0912848    0.4334727
C     2.2216473    1.1336562    0.2934990
C     1.0486931    0.3945528    0.0302412
C     3.4483363    0.4614633    0.5573939
H     4.3095794    1.0606054    0.8334846
C     3.5427346   -0.8855926    0.4749463
H     4.4731467   -1.3939704    0.7038822
C     2.4490052   -1.6474447   -0.0196319
C     1.2150704   -1.0057258   -0.3013573
C     0.2531113   -1.7434440   -1.0216591
H    -0.6541356   -1.2535051   -1.3462847
C     0.4494193   -3.0628597   -1.3413779
H    -0.3083162   -3.5944309   -1.9054060
C     1.6251726   -3.7207967   -0.9552541
H     1.7670048   -4.7687404   -1.1927019
C     2.6109872   -3.0144177   -0.3183050
H     3.5525612   -3.4902813   -0.0646367
Bq        -2.4266845703     2.8553532743     0.1040316370
Bq        -2.4295535974     2.9768424236     0.1763652756
Bq        -2.4218696347     2.9277437889    -0.0173620606
Bq        -2.4333955787     3.0013917410     0.2732289437
Bq        -2.4180276534     2.9031944715    -0.1142257286
Bq        -2.4372375601     3.0259410584     0.3700926118
Bq        -2.4141856721     2.8786451541    -0.2110893967
Bq        -2.4410795414     3.0504903758     0.4669562799
Bq        -2.4103436907     2.8540958368    -0.3079530648
Bq        -2.4449215227     3.0750396931     0.5638199480
Bq        -2.4065017094     2.8295465194    -0.4048167329
Bq        -2.4257116161     2.9522931063     0.0795016075
Bq        -2.4285806432     3.0737822556     0.1518352462
Bq        -2.4208966805     3.0246836208    -0.0418920900
Bq        -2.4324226245     3.0983315730     0.2486989143
Bq        -2.4170546992     3.0001343035    -0.1387557581
Bq        -2.4362646058     3.1228808903     0.3455625824
Bq        -2.4132127179     2.9755849861    -0.2356194262
Bq        -2.4401065872     3.1474302077     0.4424262505
Bq        -2.4093707365     2.9510356687    -0.3324830942
Bq        -2.4439485685     3.1719795251     0.5392899186
Bq        -2.4055287552     2.9264863513    -0.4293467623
Bq        -2.4247386618     3.0492329382     0.0549715781
Bq        -2.4276076889     3.1707220875     0.1273052168
Bq        -2.4199237263     3.1216234528    -0.0664221194
Bq        -2.4314496703     3.1952714049     0.2241688849
Bq        -2.4160817450     3.0970741354    -0.1632857875
Bq        -2.4352916516     3.2198207223     0.3210325530
Bq        -2.4122397636     3.0725248180    -0.2601494556
Bq        -2.4391336329     3.2443700397     0.4178962210
Bq        -2.4083977823     3.0479755006    -0.3570131237
Bq        -2.4429756143     3.2689193570     0.5147598891
Bq        -2.4045558010     3.0234261833    -0.4538767918
Bq        -2.4237657076     3.1461727701     0.0304415487
Bq        -2.4266347347     3.2676619195     0.1027751873
Bq        -2.4189507721     3.2185632847    -0.0909521488
Bq        -2.4304767160     3.2922112368     0.1996388554
Bq        -2.4151087907     3.1940139673    -0.1878158169
Bq        -2.4343186974     3.3167605542     0.2965025235
Bq        -2.4112668094     3.1694646500    -0.2846794850
Bq        -2.4381606787     3.3413098716     0.3933661916
Bq        -2.4074248281     3.1449153326    -0.3815431531
Bq        -2.4420026600     3.3658591890     0.4902298597
Bq        -2.4035828467     3.1203660152    -0.4784068212
Bq        -2.4227927534     3.2431126021     0.0059115193
Bq        -2.4256617805     3.3646017514     0.0782451579
Bq        -2.4179778178     3.3155031167    -0.1154821783
Bq        -2.4295037618     3.3891510688     0.1751088260
Bq        -2.4141358365     3.2909537993    -0.2123458464
Bq        -2.4333457432     3.4137003862     0.2719724941
Bq        -2.4102938552     3.2664044819    -0.3092095144
Bq        -2.4371877245     3.4382497035     0.3688361622
Bq        -2.4064518738     3.2418551645    -0.4060731825
Bq        -2.4410297058     3.4627990209     0.4656998303
Bq        -2.4026098925     3.2173058471    -0.5029368506
Bq        -2.4218197992     3.3400524340    -0.0186185102
Bq        -2.4246888263     3.4615415833     0.0537151285
Bq        -2.4170048636     3.4124429486    -0.1400122077
Bq        -2.4285308076     3.4860909007     0.1505787966
Bq        -2.4131628823     3.3878936312    -0.2368758758
Bq        -2.4323727889     3.5106402181     0.2474424647
Bq        -2.4093209010     3.3633443138    -0.3337395439
Bq        -2.4362147703     3.5351895355     0.3443061328
Bq        -2.4054789196     3.3387949965    -0.4306032120
Bq        -2.4400567516     3.5597388528     0.4411698009
Bq        -2.4016369383     3.3142456791    -0.5274668800
Bq        -2.4208468449     3.4369922660    -0.0431485396
Bq        -2.4237158720     3.5584814153     0.0291850991
Bq        -2.4160319094     3.5093827805    -0.1645422371
Bq        -2.4275578534     3.5830307327     0.1260487672
Bq        -2.4121899281     3.4848334632    -0.2614059052
Bq        -2.4313998347     3.6075800500     0.2229124352
Bq        -2.4083479467     3.4602841458    -0.3582695733
Bq        -2.4352418160     3.6321293674     0.3197761033
Bq        -2.4045059654     3.4357348284    -0.4551332414
Bq        -2.4390837974     3.6566786848     0.4166397714
Bq        -2.4006639841     3.4111855110    -0.5519969095
Bq        -2.4198738907     3.5339320979    -0.0676785690
Bq        -2.4227429178     3.6554212472     0.0046550696
Bq        -2.4150589552     3.6063226125    -0.1890722665
Bq        -2.4265848992     3.6799705646     0.1015187377
Bq        -2.4112169738     3.5817732951    -0.2859359346
Bq        -2.4304268805     3.7045198820     0.1983824058
Bq        -2.4073749925     3.5572239777    -0.3827996027
Bq        -2.4342688618     3.7290691993     0.2952460739
Bq        -2.4035330112     3.5326746603    -0.4796632708
Bq        -2.4381108431     3.7536185167     0.3921097420
Bq        -2.3996910298     3.5081253430    -0.5765269389
Bq        -2.4189009365     3.6308719298    -0.0922085985
Bq        -2.4217699636     3.7523610792    -0.0198749598
Bq        -2.4140860009     3.7032624444    -0.2136022960
Bq        -2.4256119449     3.7769103965     0.0769887083
Bq        -2.4102440196     3.6787131270    -0.3104659641
Bq        -2.4294539263     3.8014597139     0.1738523764
Bq        -2.4064020383     3.6541638097    -0.4073296321
Bq        -2.4332959076     3.8260090313     0.2707160445
Bq        -2.4025600570     3.6296144923    -0.5041933002
Bq        -2.4371378889     3.8505583487     0.3675797126
Bq        -2.3987180756     3.6050651749    -0.6010569683
Bq        -2.4179279823     3.7278117618    -0.1167386279
Bq        -2.4207970094     3.8493009111    -0.0444049892
Bq        -2.4131130467     3.8002022763    -0.2381323254
Bq        -2.4246389907     3.8738502285     0.0524586789
Bq        -2.4092710654     3.7756529590    -0.3349959935
Bq        -2.4284809720     3.8983995458     0.1493223470
Bq        -2.4054290841     3.7511036416    -0.4318596616
Bq        -2.4323229534     3.9229488632     0.2461860151
Bq        -2.4015871027     3.7265543242    -0.5287233297
Bq        -2.4361649347     3.9474981806     0.3430496831
Bq        -2.3977451214     3.7020050068    -0.6255869978
Bq        -2.4169550280     3.8247515937    -0.1412686573
Bq        -2.4198240551     3.9462407430    -0.0689350186
Bq        -2.4121400925     3.8971421083    -0.2626623548
Bq        -2.4236660365     3.9707900604     0.0279286494
Bq        -2.4082981112     3.8725927909    -0.3595260229
Bq        -2.4275080178     3.9953393778     0.1247923175
Bq        -2.4044561298     3.8480434735    -0.4563896910
Bq        -2.4313499991     4.0198886952     0.2216559856
Bq        -2.4006141485     3.8234941562    -0.5532533591
Bq        -2.4351919805     4.0444380125     0.3185196537
Bq        -2.3967721672     3.7989448388    -0.6501170272
Bq        -2.4159820738     3.9216914257    -0.1657986867
Bq        -2.4188511009     4.0431805750    -0.0934650481
Bq        -2.4111671383     3.9940819402    -0.2871923843
Bq        -2.4226930823     4.0677298924     0.0033986200
Bq        -2.4073251569     3.9695326228    -0.3840560523
Bq        -2.4265350636     4.0922792097     0.1002622881
Bq        -2.4034831756     3.9449833055    -0.4809197204
Bq        -2.4303770449     4.1168285271     0.1971259562
Bq        -2.3996411943     3.9204339881    -0.5777833885
Bq        -2.4342190262     4.1413778445     0.2939896243
Bq        -2.3957992129     3.8958846707    -0.6746470566
Bq        -2.4150091196     4.0186312576    -0.1903287162
Bq        -2.4178781467     4.1401204069    -0.1179950775
Bq        -2.4101941840     4.0910217722    -0.3117224137
Bq        -2.4217201280     4.1646697243    -0.0211314094
Bq        -2.4063522027     4.0664724548    -0.4085860818
Bq        -2.4255621094     4.1892190417     0.0757322587
Bq        -2.4025102214     4.0419231374    -0.5054497499
Bq        -2.4294040907     4.2137683590     0.1725959268
Bq        -2.3986682401     4.0173738200    -0.6023134179
Bq        -2.4332460720     4.2383176764     0.2694595949
Bq        -2.3948262587     3.9928245027    -0.6991770860
Bq        -2.4140361654     4.1155710895    -0.2148587456
Bq        -2.4169051925     4.2370602389    -0.1425251069
Bq        -2.4092212298     4.1879616041    -0.3362524431
Bq        -2.4207471738     4.2616095562    -0.0456614388
Bq        -2.4053792485     4.1634122867    -0.4331161112
Bq        -2.4245891551     4.2861588736     0.0512022293
Bq        -2.4015372672     4.1388629694    -0.5299797793
Bq        -2.4284311365     4.3107081910     0.1480658973
Bq        -2.3976952858     4.1143136520    -0.6268434474
Bq        -2.4322731178     4.3352575084     0.2449295654
Bq        -2.3938533045     4.0897643346    -0.7237071155
Bq        -2.4130632111     4.2125109215    -0.2393887750
Bq        -2.4159322383     4.3340000708    -0.1670551364
Bq        -2.4082482756     4.2849014360    -0.3607824725
Bq        -2.4197742196     4.3585493882    -0.0701914683
Bq        -2.4044062943     4.2603521187    -0.4576461406
Bq        -2.4236162009     4.3830987055     0.0266721998
Bq        -2.4005643129     4.2358028013    -0.5545098087
Bq        -2.4274581822     4.4076480229     0.1235358679
Bq        -2.3967223316     4.2112534839    -0.6513734768
Bq        -2.4313001636     4.4321973403     0.2203995360
Bq        -2.3928803503     4.1867041665    -0.7482371449
Bq        -2.4120902569     4.3094507534    -0.2639188044
Bq        -2.4149592840     4.4309399027    -0.1915851658
Bq        -2.4072753214     4.3818412680    -0.3853125020
Bq        -2.4188012654     4.4554892201    -0.0947214977
Bq        -2.4034333400     4.3572919506    -0.4821761700
Bq        -2.4226432467     4.4800385375     0.0021421704
Bq        -2.3995913587     4.3327426332    -0.5790398381
Bq        -2.4264852280     4.5045878549     0.0990058385
Bq        -2.3957493774     4.3081933159    -0.6759035062
Bq        -2.4303272093     4.5291371722     0.1958695066
Bq        -2.3919073961     4.2836439985    -0.7727671743
Bq        -2.4111173027     4.4063905854    -0.2884488339
Bq        -2.3636855634    -0.4160516942     1.0388795694
Bq        -2.3560016008    -0.4651503290     0.8451522333
Bq        -2.3675275447    -0.3915023768     1.1357432375
Bq        -2.3521596194    -0.4896996464     0.7482885652
Bq        -2.3713695261    -0.3669530595     1.2326069056
Bq        -2.3483176381    -0.5142489637     0.6514248971
Bq        -2.3752115074    -0.3424037421     1.3294705737
Bq        -2.3444756568    -0.5387982811     0.5545612290
Bq        -2.3790534887    -0.3178544247     1.4263342418
Bq        -2.3406336754    -0.5633475985     0.4576975609
Bq        -2.3598435821    -0.4406010116     0.9420159014
Bq        -2.3627126092    -0.3191118623     1.0143495400
Bq        -2.3550286465    -0.3682104970     0.8206222038
Bq        -2.3665545905    -0.2945625449     1.1112132081
Bq        -2.3511866652    -0.3927598144     0.7237585357
Bq        -2.3703965718    -0.2700132275     1.2080768762
Bq        -2.3473446839    -0.4173091318     0.6268948677
Bq        -2.3742385532    -0.2454639102     1.3049405443
Bq        -2.3435027025    -0.4418584492     0.5300311996
Bq        -2.3780805345    -0.2209145928     1.4018042124
Bq        -2.3396607212    -0.4664077665     0.4331675315
Bq        -2.3588706279    -0.3436611797     0.9174858719
Bq        -2.3617396550    -0.2221720303     0.9898195106

1
2
3
4
5
6
7
8
9
10
11
12
13
14
15
16
17
18
19
20
21
22
23
24
25
26
27
28
29
30
31
32
33
34
35
36
37
38
39
40
41
42
43
44
45
46
47
48
49
50
51
52
53
54
55
56
57
58
59
60
61
62
63
64
65
66
67
68
69
70
71
72
73
74
75
76
77
78
79
80
81
82
83
84
85
86
87
88
89
90
91
92
93
94
95
96
97
98
99
100
101
102
103
104
105
106
107
108
109
110
111
112
113
114
115
116
117
118
119
120
121
122
123
124
125
126
127
128
129
130
131
132
133
134
135
136
137
138
139
140
141
142
143
144
145
146
147
148
149
150
151
152
153
154
155
156
157
158
159
160
161
162
163
164
165
166
167
168
169
170
171
172
173
174
175
176
177
178
179
180
181
182
183
184
185
186
187
188
189
190
191
192
193
194
195
196
197
198
199
200
201
202
203
204
205
206
207
208
209
210
211
212
213
214
215
216
217
218
219
220
221
222
223
224
225
226
227
228
229
230
231
232
233
234
235
236

