%nproc=8
%mem=1000MB
# rb3lyp/6-311+g** NMR geom=connectivity

Title

0 1
C    -4.0500558   -0.5771862    0.8136712
H    -5.0263804   -1.0082727    1.0024760
C    -3.9381552    0.6617804    0.2400876
H    -4.8252424    1.2338890   -0.0111295
C    -2.6768410    1.2433246    0.0057578
C    -1.4974121    0.5051527    0.2848253
C    -1.6508332   -0.7338728    0.9404026
H    -0.7713646   -1.2730967    1.2633753
C    -2.8898548   -1.2624035    1.1994307
H    -2.9683706   -2.2124563    1.7152676
C    -2.5773185    2.5963696   -0.4192930
H    -3.4870728    3.1412239   -0.6474055
C    -1.3741895    3.2147896   -0.4364030
H    -1.2997315    4.2742019   -0.6578144
C    -0.1719488    2.4994090   -0.1734588
C    -0.2043917    1.1018437    0.0192689
C     1.0513491    3.2042560   -0.0676222
H     1.0427344    4.2819499   -0.1896997
C     2.1942091    2.5487446    0.2579577
H     3.1168527    3.0912848    0.4334727
C     2.2216473    1.1336562    0.2934990
C     1.0486931    0.3945528    0.0302412
C     3.4483363    0.4614633    0.5573939
H     4.3095794    1.0606054    0.8334846
C     3.5427346   -0.8855926    0.4749463
H     4.4731467   -1.3939704    0.7038822
C     2.4490052   -1.6474447   -0.0196319
C     1.2150704   -1.0057258   -0.3013573
C     0.2531113   -1.7434440   -1.0216591
H    -0.6541356   -1.2535051   -1.3462847
C     0.4494193   -3.0628597   -1.3413779
H    -0.3083162   -3.5944309   -1.9054060
C     1.6251726   -3.7207967   -0.9552541
H     1.7670048   -4.7687404   -1.1927019
C     2.6109872   -3.0144177   -0.3183050
H     3.5525612   -3.4902813   -0.0646367
Bq         2.3202296505    -2.8146542881     0.2905316984
Bq         2.3999531781    -2.7614229859     0.1150022490
Bq         2.2803678867    -2.8412699392     0.3782964232
Bq         2.4398149418    -2.7348073348     0.0272375243
Bq         2.2405061229    -2.8678855903     0.4660611479
Bq         2.4796767056    -2.7081916837    -0.0605272004
Bq         2.2006443591    -2.8945012414     0.5538258726
Bq         2.5195384694    -2.6815760326    -0.1482919251
Bq         2.1607825953    -2.9211168925     0.6415905973
Bq         2.5594002332    -2.6549603815    -0.2360566498
Bq         2.3600914143    -2.7880386370     0.2027669737
Bq         2.3092231771    -2.7182613054     0.3147649489
Bq         2.3889467047    -2.6650300032     0.1392354995
Bq         2.2693614133    -2.7448769565     0.4025296736
Bq         2.4288084685    -2.6384143521     0.0514707748
Bq         2.2294996495    -2.7714926076     0.4902943983
Bq         2.4686702323    -2.6117987010    -0.0362939500
Bq         2.1896378858    -2.7981082587     0.5780591230
Bq         2.5085319961    -2.5851830499    -0.1240586747
Bq         2.1497761220    -2.8247239098     0.6658238478
Bq         2.5483937598    -2.5585673988    -0.2118233994
Bq         2.3490849409    -2.6916456543     0.2270002242
Bq         2.2982167037    -2.6218683227     0.3389981994
Bq         2.3779402313    -2.5686370205     0.1634687499
Bq         2.2583549400    -2.6484839738     0.4267629241
Bq         2.4178019951    -2.5420213694     0.0757040252
Bq         2.2184931762    -2.6750996249     0.5145276488
Bq         2.4576637589    -2.5154057183    -0.0120606995
Bq         2.1786314124    -2.7017152760     0.6022923735
Bq         2.4975255227    -2.4887900672    -0.0998254242
Bq         2.1387696486    -2.7283309271     0.6900570982
Bq         2.5373872865    -2.4621744160    -0.1875901489
Bq         2.3380784675    -2.5952526716     0.2512334746
Bq         2.2872102304    -2.5254753400     0.3632314498
Bq         2.3669337579    -2.4722440378     0.1877020004
Bq         2.2473484666    -2.5520909911     0.4509961745
Bq         2.4067955217    -2.4456283867     0.0999372757
Bq         2.2074867028    -2.5787066422     0.5387608992
Bq         2.4466572855    -2.4190127355     0.0121725510
Bq         2.1676249390    -2.6053222933     0.6265256240
Bq         2.4865190493    -2.3923970844    -0.0755921737
Bq         2.1277631752    -2.6319379444     0.7142903487
Bq         2.5263808131    -2.3657814333    -0.1633568985
Bq         2.3270719942    -2.4988596889     0.2754667251
Bq         2.2762037570    -2.4290823573     0.3874647003
Bq         2.3559272846    -2.3758510550     0.2119352508
Bq         2.2363419932    -2.4556980084     0.4752294250
Bq         2.3957890484    -2.3492354039     0.1241705261
Bq         2.1964802294    -2.4823136595     0.5629941497
Bq         2.4356508121    -2.3226197528     0.0364058014
Bq         2.1566184656    -2.5089293106     0.6507588744
Bq         2.4755125759    -2.2960041017    -0.0513589233
Bq         2.1167567018    -2.5355449617     0.7385235991
Bq         2.5153743397    -2.2693884506    -0.1391236480
Bq         2.3160655208    -2.4024667062     0.2996999756
Bq         2.2651972836    -2.3326893746     0.4116979507
Bq         2.3449208112    -2.2794580723     0.2361685013
Bq         2.2253355198    -2.3593050257     0.4994626754
Bq         2.3847825750    -2.2528424212     0.1484037766
Bq         2.1854737561    -2.3859206768     0.5872274002
Bq         2.4246443388    -2.2262267701     0.0606390519
Bq         2.1456119923    -2.4125363279     0.6749921249
Bq         2.4645061026    -2.1996111190    -0.0271256728
Bq         2.1057502285    -2.4391519790     0.7627568496
Bq         2.5043678664    -2.1729954679    -0.1148903975
Bq         2.3050590474    -2.3060737234     0.3239332260
Bq         2.2541908103    -2.2362963918     0.4359312012
Bq         2.3339143378    -2.1830650896     0.2604017518
Bq         2.2143290465    -2.2629120429     0.5236959259
Bq         2.3737761016    -2.1564494385     0.1726370271
Bq         2.1744672827    -2.2895276941     0.6114606506
Bq         2.4136378654    -2.1298337874     0.0848723023
Bq         2.1346055189    -2.3161433452     0.6992253753
Bq         2.4534996292    -2.1032181363    -0.0028924224
Bq         2.0947437551    -2.3427589963     0.7869901000
Bq         2.4933613930    -2.0766024852    -0.0906571471
Bq         2.2940525740    -2.2096807407     0.3481664765
Bq         2.2431843369    -2.1399034091     0.4601644516
Bq         2.3229078645    -2.0866721069     0.2846350022
Bq         2.2033225731    -2.1665190602     0.5479291764
Bq         2.3627696282    -2.0600564558     0.1968702775
Bq         2.1634608093    -2.1931347113     0.6356939011
Bq         2.4026313920    -2.0334408047     0.1091055528
Bq         2.1235990455    -2.2197503624     0.7234586258
Bq         2.4424931558    -2.0068251536     0.0213408281
Bq         2.0837372817    -2.2463660136     0.8112233505
Bq         2.4823549196    -1.9802095025    -0.0664238966
Bq         2.2830461007    -2.1132877580     0.3723997269
Bq         2.2321778635    -2.0435104264     0.4843977021
Bq         2.3119013911    -1.9902791242     0.3088682527
Bq         2.1923160997    -2.0701260775     0.5721624268
Bq         2.3517631549    -1.9636634731     0.2211035280
Bq         2.1524543359    -2.0967417286     0.6599271515
Bq         2.3916249187    -1.9370478220     0.1333388033
Bq         2.1125925721    -2.1233573797     0.7476918762
Bq         2.4314866824    -1.9104321709     0.0455740785
Bq         2.0727308084    -2.1499730308     0.8354566010
Bq         2.4713484462    -1.8838165198    -0.0421906462
Bq         2.2720396273    -2.0168947753     0.3966329774
Bq         2.2211713901    -1.9471174437     0.5086309526
Bq         2.3008949177    -1.8938861415     0.3331015031
Bq         2.1813096264    -1.9737330948     0.5963956773
Bq         2.3407566815    -1.8672704904     0.2453367784
Bq         2.1414478626    -2.0003487459     0.6841604020
Bq         2.3806184453    -1.8406548393     0.1575720537
Bq         2.1015860988    -2.0269643970     0.7719251267
Bq         2.4204802091    -1.8140391882     0.0698073290
Bq         2.0617243350    -2.0535800481     0.8596898514
Bq         2.4603419729    -1.7874235371    -0.0179573957
Bq         2.2610331539    -1.9205017926     0.4208662279
Bq         2.2101649168    -1.8507244610     0.5328642030
Bq         2.2898884443    -1.7974931588     0.3573347536
Bq         2.1703031530    -1.8773401121     0.6206289277
Bq         2.3297502081    -1.7708775077     0.2695700289
Bq         2.1304413892    -1.9039557632     0.7083936524
Bq         2.3696119719    -1.7442618566     0.1818053042
Bq         2.0905796254    -1.9305714143     0.7961583772
Bq         2.4094737357    -1.7176462055     0.0940405795
Bq         2.0507178616    -1.9571870654     0.8839231019
Bq         2.4493354995    -1.6910305543     0.0062758547
Bq         2.2500266806    -1.8241088099     0.4450994783
Bq         2.1991584434    -1.7543314783     0.5570974535
Bq         2.2788819710    -1.7011001761     0.3815680041
Bq         2.1592966796    -1.7809471294     0.6448621782
Bq         2.3187437348    -1.6744845250     0.2938032793
Bq         2.1194349158    -1.8075627805     0.7326269029
Bq         2.3586054985    -1.6478688739     0.2060385546
Bq         2.0795731520    -1.8341784316     0.8203916276
Bq         2.3984672623    -1.6212532227     0.1182738299
Bq         2.0397113882    -1.8607940827     0.9081563523
Bq         2.4383290261    -1.5946375716     0.0305091052
Bq         2.2390202072    -1.7277158272     0.4693327288
Bq         2.1881519700    -1.6579384956     0.5813307039
Bq         2.2678754976    -1.6047071934     0.4058012545
Bq         2.1482902062    -1.6845541467     0.6690954287
Bq         2.3077372614    -1.5780915422     0.3180365298
Bq         2.1084284424    -1.7111697978     0.7568601534
Bq         2.3475990252    -1.5514758911     0.2302718051
Bq         2.0685666787    -1.7377854489     0.8446248781
Bq         2.3874607890    -1.5248602400     0.1425070804
Bq         2.0287049149    -1.7644011000     0.9323896028
Bq         2.4273225527    -1.4982445889     0.0547423557
Bq         2.2280137338    -1.6313228445     0.4935659792
Bq         2.1771454966    -1.5615455129     0.6055639544
Bq         2.2568690242    -1.5083142106     0.4300345050
Bq         2.1372837329    -1.5881611640     0.6933286791
Bq         2.2967307880    -1.4816985595     0.3422697803
Bq         2.0974219691    -1.6147768151     0.7810934038
Bq         2.3365925518    -1.4550829084     0.2545050555
Bq         2.0575602053    -1.6413924662     0.8688581285
Bq         2.3764543156    -1.4284672573     0.1667403308
Bq         2.0176984415    -1.6680081173     0.9566228532
Bq         2.4163160794    -1.4018516062     0.0789756061
Bq         2.2170072604    -1.5349298617     0.5177992297
Bq         2.1661390233    -1.4651525301     0.6297972049
Bq         2.2458625509    -1.4119212279     0.4542677554
Bq         2.1262772595    -1.4917681812     0.7175619296
Bq         2.2857243146    -1.3853055768     0.3665030307
Bq         2.0864154957    -1.5183838324     0.8053266543
Bq         2.3255860784    -1.3586899257     0.2787383060
Bq         2.0465537319    -1.5449994835     0.8930913790
Bq         2.3654478422    -1.3320742746     0.1909735813
Bq         2.0066919681    -1.5716151346     0.9808561037
Bq         2.4053096060    -1.3054586235     0.1032088566
Bq         2.2060007871    -1.4385368790     0.5420324801
Bq         2.1551325499    -1.3687595474     0.6540304553
Bq         2.2348560775    -1.3155282452     0.4785010059
Bq         2.1152707861    -1.3953751985     0.7417951800
Bq         2.2747178413    -1.2889125941     0.3907362812
Bq         2.0754090223    -1.4219908496     0.8295599047
Bq         2.3145796051    -1.2622969430     0.3029715565
Bq         2.0355472585    -1.4486065008     0.9173246295
Bq         2.3544413688    -1.2356812919     0.2152068317
Bq         1.9956854948    -1.4752221519     1.0050893542
Bq         2.3943031326    -1.2090656408     0.1274421070
Bq         2.1949943137    -1.3421438963     0.5662657306
Bq         2.1441260765    -1.2723665647     0.6782637058
Bq         2.2238496041    -1.2191352625     0.5027342563
Bq         2.1042643127    -1.2989822158     0.7660284305
Bq         2.2637113679    -1.1925196114     0.4149695316
Bq         2.0644025490    -1.3255978669     0.8537931552
Bq         2.3035731317    -1.1659039603     0.3272048069
Bq         2.0245407852    -1.3522135180     0.9415578799
Bq         2.3434348955    -1.1392883092     0.2394400822
Bq         1.9846790214    -1.3788291691     1.0293226046
Bq         2.3832966593    -1.1126726581     0.1516753575
Bq         2.1839878403    -1.2457509136     0.5904989811
Bq         2.1331196032    -1.1759735820     0.7024969562
Bq         2.2128431307    -1.1227422798     0.5269675068
Bq         2.0932578394    -1.2025892331     0.7902616809
Bq         2.2527048945    -1.0961266287     0.4392027821
Bq         2.0533960756    -1.2292048842     0.8780264057
Bq         2.2925666583    -1.0695109776     0.3514380574
Bq         2.0135343118    -1.2558205353     0.9657911304
Bq         2.3324284221    -1.0428953265     0.2636733327
Bq         1.9736725480    -1.2824361864     1.0535558551
Bq         2.3722901859    -1.0162796754     0.1759086080
Bq         2.1729813669    -1.1493579309     0.6147322315
Bq         2.1221131298    -1.0795805993     0.7267302067
Bq         2.2018366574    -1.0263492971     0.5512007573

1
2
3
4
5
6
7
8
9
10
11
12
13
14
15
16
17
18
19
20
21
22
23
24
25
26
27
28
29
30
31
32
33
34
35
36
37
38
39
40
41
42
43
44
45
46
47
48
49
50
51
52
53
54
55
56
57
58
59
60
61
62
63
64
65
66
67
68
69
70
71
72
73
74
75
76
77
78
79
80
81
82
83
84
85
86
87
88
89
90
91
92
93
94
95
96
97
98
99
100
101
102
103
104
105
106
107
108
109
110
111
112
113
114
115
116
117
118
119
120
121
122
123
124
125
126
127
128
129
130
131
132
133
134
135
136
137
138
139
140
141
142
143
144
145
146
147
148
149
150
151
152
153
154
155
156
157
158
159
160
161
162
163
164
165
166
167
168
169
170
171
172
173
174
175
176
177
178
179
180
181
182
183
184
185
186
187
188
189
190
191
192
193
194
195
196
197
198
199
200
201
202
203
204
205
206
207
208
209
210
211
212
213
214
215
216
217
218
219
220
221
222
223
224
225
226
227
228
229
230
231
232
233
234
235
236

