%nproc=8
%mem=1000MB
# rb3lyp/6-311+g** NMR geom=connectivity

Title

0 1
C    -4.0500558   -0.5771862    0.8136712
H    -5.0263804   -1.0082727    1.0024760
C    -3.9381552    0.6617804    0.2400876
H    -4.8252424    1.2338890   -0.0111295
C    -2.6768410    1.2433246    0.0057578
C    -1.4974121    0.5051527    0.2848253
C    -1.6508332   -0.7338728    0.9404026
H    -0.7713646   -1.2730967    1.2633753
C    -2.8898548   -1.2624035    1.1994307
H    -2.9683706   -2.2124563    1.7152676
C    -2.5773185    2.5963696   -0.4192930
H    -3.4870728    3.1412239   -0.6474055
C    -1.3741895    3.2147896   -0.4364030
H    -1.2997315    4.2742019   -0.6578144
C    -0.1719488    2.4994090   -0.1734588
C    -0.2043917    1.1018437    0.0192689
C     1.0513491    3.2042560   -0.0676222
H     1.0427344    4.2819499   -0.1896997
C     2.1942091    2.5487446    0.2579577
H     3.1168527    3.0912848    0.4334727
C     2.2216473    1.1336562    0.2934990
C     1.0486931    0.3945528    0.0302412
C     3.4483363    0.4614633    0.5573939
H     4.3095794    1.0606054    0.8334846
C     3.5427346   -0.8855926    0.4749463
H     4.4731467   -1.3939704    0.7038822
C     2.4490052   -1.6474447   -0.0196319
C     1.2150704   -1.0057258   -0.3013573
C     0.2531113   -1.7434440   -1.0216591
H    -0.6541356   -1.2535051   -1.3462847
C     0.4494193   -3.0628597   -1.3413779
H    -0.3083162   -3.5944309   -1.9054060
C     1.6251726   -3.7207967   -0.9552541
H     1.7670048   -4.7687404   -1.1927019
C     2.6109872   -3.0144177   -0.3183050
H     3.5525612   -3.4902813   -0.0646367
Bq         1.5241854913    -1.9414985178     0.4402235132
Bq         1.6269009486    -1.8845878817     0.0578484168
Bq         1.4985066270    -1.9557261768     0.5358172873
Bq         1.6525798129    -1.8703602226    -0.0377453573
Bq         1.4728277627    -1.9699538358     0.6314110614
Bq         1.6782586773    -1.8561325636    -0.1333391314
Bq         1.4471488983    -1.9841814949     0.7270048355
Bq         1.7039375416    -1.8419049046    -0.2289329055
Bq         1.5755432200    -1.9130431997     0.2490359650
Bq         1.5461733051    -1.8282881647     0.3583702787
Bq         1.5975310337    -1.7998328466     0.1671827305
Bq         1.5204944408    -1.8425158237     0.4539640528
Bq         1.6232098981    -1.7856051876     0.0715889564
Bq         1.4948155765    -1.8567434828     0.5495578269
Bq         1.6488887624    -1.7713775286    -0.0240048177
Bq         1.4691367121    -1.8709711418     0.6451516009
Bq         1.6745676267    -1.7571498696    -0.1195985918
Bq         1.4434578478    -1.8851988008     0.7407453750
Bq         1.7002464910    -1.7429222105    -0.2151923659
Bq         1.5718521694    -1.8140605057     0.2627765046
Bq         1.5424822546    -1.7293054707     0.3721108182
Bq         1.5938399832    -1.7008501526     0.1809232700
Bq         1.5168033902    -1.7435331297     0.4677045923
Bq         1.6195188475    -1.6866224936     0.0853294959
Bq         1.4911245259    -1.7577607887     0.5632983664
Bq         1.6451977119    -1.6723948346    -0.0102642782
Bq         1.4654456616    -1.7719884478     0.6588921405
Bq         1.6708765762    -1.6581671755    -0.1058580523
Bq         1.4397667973    -1.7862161068     0.7544859146
Bq         1.6965554405    -1.6439395165    -0.2014518263
Bq         1.5681611189    -1.7150778116     0.2765170441
Bq         1.5387912040    -1.6303227766     0.3858513578
Bq         1.5901489327    -1.6018674586     0.1946638096
Bq         1.5131123397    -1.6445504357     0.4814451319
Bq         1.6158277970    -1.5876397995     0.0990700355
Bq         1.4874334754    -1.6587780947     0.5770389060
Bq         1.6415066613    -1.5734121405     0.0034762614
Bq         1.4617546111    -1.6730057537     0.6726326801
Bq         1.6671855256    -1.5591844815    -0.0921175127
Bq         1.4360757467    -1.6872334127     0.7682264542
Bq         1.6928643900    -1.5449568225    -0.1877112868
Bq         1.5644700684    -1.6160951176     0.2902575837
Bq         1.5351001535    -1.5313400826     0.3995918973
Bq         1.5864578821    -1.5028847645     0.2084043491
Bq         1.5094212892    -1.5455677416     0.4951856714
Bq         1.6121367465    -1.4886571055     0.1128105751
Bq         1.4837424249    -1.5597954007     0.5907794455
Bq         1.6378156108    -1.4744294465     0.0172168010
Bq         1.4580635605    -1.5740230597     0.6863732196
Bq         1.6634944751    -1.4602017875    -0.0783769731
Bq         1.4323846962    -1.5882507187     0.7819669937
Bq         1.6891733394    -1.4459741284    -0.1739707472
Bq         1.5607790178    -1.5171124236     0.3039981232
Bq         1.5314091030    -1.4323573886     0.4133324369
Bq         1.5827668316    -1.4039020705     0.2221448887
Bq         1.5057302386    -1.4465850476     0.5089262110
Bq         1.6084456959    -1.3896744115     0.1265511146
Bq         1.4800513743    -1.4608127066     0.6045199851
Bq         1.6341245603    -1.3754467524     0.0309573405
Bq         1.4543725100    -1.4750403656     0.7001137592
Bq         1.6598034246    -1.3612190934    -0.0646364336
Bq         1.4286936457    -1.4892680247     0.7957075333
Bq         1.6854822889    -1.3469914344    -0.1602302077
Bq         1.5570879673    -1.4181297295     0.3177386628
Bq         1.5277180524    -1.3333746945     0.4270729765
Bq         1.5790757811    -1.3049193765     0.2358854283
Bq         1.5020391881    -1.3476023536     0.5226667506
Bq         1.6047546454    -1.2906917174     0.1402916542
Bq         1.4763603238    -1.3618300126     0.6182605246
Bq         1.6304335097    -1.2764640584     0.0446978801
Bq         1.4506814595    -1.3760576716     0.7138542987
Bq         1.6561123740    -1.2622363994    -0.0508958940
Bq         1.4250025951    -1.3902853306     0.8094480728
Bq         1.6817912384    -1.2480087404    -0.1464896681
Bq         1.5533969167    -1.3191470355     0.3314792024
Bq         1.5240270019    -1.2343920005     0.4408135160
Bq         1.5753847305    -1.2059366824     0.2496259678
Bq         1.4983481376    -1.2486196595     0.5364072901
Bq         1.6010635949    -1.1917090234     0.1540321937
Bq         1.4726692732    -1.2628473185     0.6320010642
Bq         1.6267424592    -1.1774813644     0.0584384196
Bq         1.4469904089    -1.2770749776     0.7275948383
Bq         1.6524213235    -1.1632537054    -0.0371553545
Bq         1.4213115446    -1.2913026366     0.8231886124
Bq         1.6781001878    -1.1490260463    -0.1327491286
Bq         1.5497058662    -1.2201643415     0.3452197419
Bq         1.5203359514    -1.1354093065     0.4545540556
Bq         1.5716936800    -1.1069539884     0.2633665074
Bq         1.4946570870    -1.1496369655     0.5501478297
Bq         1.5973725443    -1.0927263294     0.1677727333
Bq         1.4689782227    -1.1638646245     0.6457416038
Bq         1.6230514086    -1.0784986703     0.0721789592
Bq         1.4432993584    -1.1780922835     0.7413353779
Bq         1.6487302730    -1.0642710113    -0.0234148149
Bq         1.4176204941    -1.1923199426     0.8369291520
Bq         1.6744091373    -1.0500433523    -0.1190085890
Bq         1.5460148157    -1.1211816474     0.3589602815
Bq         1.5166449008    -1.0364266124     0.4682945951
Bq         1.5680026295    -1.0079712944     0.2771070469
Bq         1.4909660365    -1.0506542714     0.5638883692
Bq         1.5936814938    -0.9937436353     0.1815132728
Bq         1.4652871722    -1.0648819305     0.6594821433
Bq         1.6193603581    -0.9795159763     0.0859194988
Bq         1.4396083079    -1.0791095895     0.7550759174
Bq         1.6450392224    -0.9652883173    -0.0096742753
Bq         1.4139294435    -1.0933372485     0.8506696915
Bq         1.6707180868    -0.9510606583    -0.1052680494
Bq         1.5423237651    -1.0221989534     0.3727008210
Bq         1.5129538503    -0.9374439184     0.4820351347
Bq         1.5643115789    -0.9089886003     0.2908475865
Bq         1.4872749860    -0.9516715774     0.5776289088
Bq         1.5899904433    -0.8947609413     0.1952538124
Bq         1.4615961216    -0.9658992364     0.6732226829
Bq         1.6156693076    -0.8805332823     0.0996600383
Bq         1.4359172573    -0.9801268955     0.7688164570
Bq         1.6413481719    -0.8663056232     0.0040662642
Bq         1.4102383930    -0.9943545545     0.8644102311
Bq         1.6670270362    -0.8520779642    -0.0915275099
Bq         1.5386327146    -0.9232162594     0.3864413606
Bq         1.5092627997    -0.8384612243     0.4957756743
Bq         1.5606205284    -0.8100059063     0.3045881261
Bq         1.4835839354    -0.8526888834     0.5913694483
Bq         1.5862993927    -0.7957782473     0.2089943520
Bq         1.4579050711    -0.8669165424     0.6869632224
Bq         1.6119782570    -0.7815505882     0.1134005779
Bq         1.4322262068    -0.8811442014     0.7825569965
Bq         1.6376571214    -0.7673229292     0.0178068038
Bq         1.4065473425    -0.8953718605     0.8781507706
Bq         1.6633359857    -0.7530952702    -0.0777869703
Bq         1.5349416641    -0.8242335653     0.4001819002
Bq         1.5055717492    -0.7394785303     0.5095162138
Bq         1.5569294779    -0.7110232123     0.3183286656
Bq         1.4798928849    -0.7537061893     0.6051099879
Bq         1.5826083422    -0.6967955532     0.2227348915
Bq         1.4542140206    -0.7679338484     0.7007037620
Bq         1.6082872065    -0.6825678942     0.1271411174
Bq         1.4285351562    -0.7821615074     0.7962975361
Bq         1.6339660708    -0.6683402352     0.0315473433
Bq         1.4028562919    -0.7963891664     0.8918913102
Bq         1.6596449351    -0.6541125761    -0.0640464308
Bq         1.5312506135    -0.7252508713     0.4139224397
Bq         1.5018806987    -0.6404958363     0.5232567534
Bq         1.5532384273    -0.6120405182     0.3320692052
Bq         1.4762018344    -0.6547234953     0.6188505275
Bq         1.5789172916    -0.5978128592     0.2364754311
Bq         1.4505229700    -0.6689511543     0.7144443016
Bq         1.6045961560    -0.5835852002     0.1408816570
Bq         1.4248441057    -0.6831788134     0.8100380757
Bq         1.6302750203    -0.5693575411     0.0452878829
Bq         1.3991652414    -0.6974064724     0.9056318497
Bq         1.6559538846    -0.5551298821    -0.0503058912
Bq         1.5275595630    -0.6262681772     0.4276629793
Bq         1.4981896481    -0.5415131422     0.5369972929
Bq         1.5495473768    -0.5130578242     0.3458097447
Bq         1.4725107838    -0.5557408013     0.6325910670
Bq         1.5752262411    -0.4988301652     0.2502159706
Bq         1.4468319195    -0.5699684603     0.7281848411
Bq         1.6009051054    -0.4846025061     0.1546221965
Bq         1.4211530552    -0.5841961193     0.8237786152
Bq         1.6265839698    -0.4703748471     0.0590284225
Bq         1.3954741909    -0.5984237784     0.9193723893
Bq         1.6522628341    -0.4561471881    -0.0365653516
Bq         1.5238685125    -0.5272854832     0.4414035188
Bq         1.4944985976    -0.4425304482     0.5507378325
Bq         1.5458563263    -0.4140751301     0.3595502843
Bq         1.4688197333    -0.4567581072     0.6463316066
Bq         1.5715351906    -0.3998474711     0.2639565102
Bq         1.4431408690    -0.4709857663     0.7419253807
Bq         1.5972140549    -0.3856198121     0.1683627361
Bq         1.4174620046    -0.4852134253     0.8375191548
Bq         1.6228929192    -0.3713921531     0.0727689620
Bq         1.3917831403    -0.4994410843     0.9331129289
Bq         1.6485717835    -0.3571644940    -0.0228248121
Bq         1.5201774619    -0.4283027892     0.4551440584
Bq         1.4908075471    -0.3435477542     0.5644783720
Bq         1.5421652757    -0.3150924361     0.3732908239
Bq         1.4651286827    -0.3577754132     0.6600721461
Bq         1.5678441400    -0.3008647771     0.2776970498
Bq         1.4394498184    -0.3720030722     0.7556659202
Bq         1.5935230044    -0.2866371181     0.1821032757
Bq         1.4137709541    -0.3862307313     0.8512596943
Bq         1.6192018687    -0.2724094590     0.0865095016
Bq         1.3880920898    -0.4004583903     0.9468534684
Bq         1.6448807330    -0.2581818000    -0.0090842725
Bq         1.5164864114    -0.3293200951     0.4688845980
Bq         1.4871164965    -0.2445650601     0.5782189116
Bq         1.5384742252    -0.2161097421     0.3870313634
Bq         1.4614376322    -0.2587927192     0.6738126857
Bq         1.5641530895    -0.2018820830     0.2914375893
Bq         1.4357587679    -0.2730203782     0.7694064598
Bq         1.5898319538    -0.1876544240     0.1958438152
Bq         1.4100799036    -0.2872480372     0.8650002339
Bq         1.6155108181    -0.1734267650     0.1002500411
Bq         1.3844010392    -0.3014756962     0.9605940080
Bq         1.6411896825    -0.1591991060     0.0046562670
Bq         1.5127953609    -0.2303374011     0.4826251375
Bq         1.4834254460    -0.1455823661     0.5919594512
Bq         1.5347831746    -0.1171270480     0.4007719030
Bq         1.4577465817    -0.1598100251     0.6875532253
Bq         1.5604620390    -0.1028993890     0.3051781289

1
2
3
4
5
6
7
8
9
10
11
12
13
14
15
16
17
18
19
20
21
22
23
24
25
26
27
28
29
30
31
32
33
34
35
36
37
38
39
40
41
42
43
44
45
46
47
48
49
50
51
52
53
54
55
56
57
58
59
60
61
62
63
64
65
66
67
68
69
70
71
72
73
74
75
76
77
78
79
80
81
82
83
84
85
86
87
88
89
90
91
92
93
94
95
96
97
98
99
100
101
102
103
104
105
106
107
108
109
110
111
112
113
114
115
116
117
118
119
120
121
122
123
124
125
126
127
128
129
130
131
132
133
134
135
136
137
138
139
140
141
142
143
144
145
146
147
148
149
150
151
152
153
154
155
156
157
158
159
160
161
162
163
164
165
166
167
168
169
170
171
172
173
174
175
176
177
178
179
180
181
182
183
184
185
186
187
188
189
190
191
192
193
194
195
196
197
198
199
200
201
202
203
204
205
206
207
208
209
210
211
212
213
214
215
216
217
218
219
220
221
222
223
224
225
226
227
228
229
230
231
232
233
234
235
236

