%nproc=8
%mem=1000MB
# rb3lyp/6-311+g** NMR geom=connectivity

Title

0 1
C    -4.0500558   -0.5771862    0.8136712
H    -5.0263804   -1.0082727    1.0024760
C    -3.9381552    0.6617804    0.2400876
H    -4.8252424    1.2338890   -0.0111295
C    -2.6768410    1.2433246    0.0057578
C    -1.4974121    0.5051527    0.2848253
C    -1.6508332   -0.7338728    0.9404026
H    -0.7713646   -1.2730967    1.2633753
C    -2.8898548   -1.2624035    1.1994307
H    -2.9683706   -2.2124563    1.7152676
C    -2.5773185    2.5963696   -0.4192930
H    -3.4870728    3.1412239   -0.6474055
C    -1.3741895    3.2147896   -0.4364030
H    -1.2997315    4.2742019   -0.6578144
C    -0.1719488    2.4994090   -0.1734588
C    -0.2043917    1.1018437    0.0192689
C     1.0513491    3.2042560   -0.0676222
H     1.0427344    4.2819499   -0.1896997
C     2.1942091    2.5487446    0.2579577
H     3.1168527    3.0912848    0.4334727
C     2.2216473    1.1336562    0.2934990
C     1.0486931    0.3945528    0.0302412
C     3.4483363    0.4614633    0.5573939
H     4.3095794    1.0606054    0.8334846
C     3.5427346   -0.8855926    0.4749463
H     4.4731467   -1.3939704    0.7038822
C     2.4490052   -1.6474447   -0.0196319
C     1.2150704   -1.0057258   -0.3013573
C     0.2531113   -1.7434440   -1.0216591
H    -0.6541356   -1.2535051   -1.3462847
C     0.4494193   -3.0628597   -1.3413779
H    -0.3083162   -3.5944309   -1.9054060
C     1.6251726   -3.7207967   -0.9552541
H     1.7670048   -4.7687404   -1.1927019
C     2.6109872   -3.0144177   -0.3183050
H     3.5525612   -3.4902813   -0.0646367
Bq        -1.2795969663     2.2240840168    -0.5004671000
Bq        -1.2813669442     2.4414976018    -0.0502136156
Bq        -1.1902683262    -2.0175893147     2.2143492368
Bq        -1.1895603350    -2.1045547487     2.0342478431
Bq        -1.1906223217    -1.9741065977     2.3043999337
Bq        -1.1892063394    -2.1480374658     1.9441971462
Bq        -1.1909763173    -1.9306238807     2.3944506306
Bq        -1.1888523439    -2.1915201828     1.8541464493
Bq        -1.1913303129    -1.8871411637     2.4845013275
Bq        -1.1884983483    -2.2350028998     1.7640957524
Bq        -1.1916843085    -1.8436584467     2.5745520244
Bq        -1.1881443527    -2.2784856168     1.6740450556
Bq        -1.1899143306    -2.0610720317     2.1242985400
Bq        -1.1900973939    -1.9275379221     2.1708668558
Bq        -1.1893894027    -2.0145033561     1.9907654621
Bq        -1.1904513895    -1.8840552051     2.2609175527
Bq        -1.1890354072    -2.0579860731     1.9007147652
Bq        -1.1908053850    -1.8405724881     2.3509682496
Bq        -1.1886814116    -2.1014687901     1.8106640683
Bq        -1.1911593806    -1.7970897711     2.4410189465
Bq        -1.1883274160    -2.1449515071     1.7206133714
Bq        -1.1915133762    -1.7536070540     2.5310696433
Bq        -1.1879734204    -2.1884342241     1.6305626745
Bq        -1.1897433983    -1.9710206391     2.0808161589
Bq        -1.1899264616    -1.8374865294     2.1273844748
Bq        -1.1892184705    -1.9244519634     1.9472830810
Bq        -1.1902804572    -1.7940038124     2.2174351717
Bq        -1.1888644749    -1.9679346804     1.8572323841
Bq        -1.1906344528    -1.7505210954     2.3074858685
Bq        -1.1885104793    -2.0114173974     1.7671816873
Bq        -1.1909884483    -1.7070383784     2.3975365654
Bq        -1.1881564837    -2.0549001144     1.6771309904
Bq        -1.1913424439    -1.6635556614     2.4875872623
Bq        -1.1878024882    -2.0983828314     1.5870802935
Bq        -1.1895724660    -1.8809692464     2.0373337779
Bq        -1.1897555293    -1.7474351367     2.0839020938
Bq        -1.1890475382    -1.8344005707     1.9038007000
Bq        -1.1901095249    -1.7039524197     2.1739527906
Bq        -1.1886935426    -1.8778832877     1.8137500031
Bq        -1.1904635205    -1.6604697027     2.2640034875
Bq        -1.1883395470    -1.9213660047     1.7236993062
Bq        -1.1908175161    -1.6169869857     2.3540541844
Bq        -1.1879855515    -1.9648487217     1.6336486093
Bq        -1.1911715116    -1.5735042687     2.4441048813
Bq        -1.1876315559    -2.0083314388     1.5435979125
Bq        -1.1894015338    -1.7909178537     1.9938513969
Bq        -1.1895845971    -1.6573837441     2.0404197127
Bq        -1.1888766059    -1.7443491781     1.8603183190
Bq        -1.1899385926    -1.6139010270     2.1304704096
Bq        -1.1885226103    -1.7878318951     1.7702676221
Bq        -1.1902925882    -1.5704183100     2.2205211065
Bq        -1.1881686148    -1.8313146121     1.6802169252
Bq        -1.1906465838    -1.5269355930     2.3105718034
Bq        -1.1878146192    -1.8747973291     1.5901662283
Bq        -1.1910005794    -1.4834528760     2.4006225002
Bq        -1.1874606236    -1.9182800461     1.5001155314
Bq        -1.1892306015    -1.7008664611     1.9503690158
Bq        -1.1894136648    -1.5673323514     1.9969373317
Bq        -1.1887056736    -1.6542977854     1.8168359379
Bq        -1.1897676604    -1.5238496344     2.0869880286
Bq        -1.1883516781    -1.6977805024     1.7267852410
Bq        -1.1901216559    -1.4803669174     2.1770387255
Bq        -1.1879976825    -1.7412632194     1.6367345442
Bq        -1.1904756515    -1.4368842004     2.2670894223
Bq        -1.1876436869    -1.7847459364     1.5466838473
Bq        -1.1908296471    -1.3934014834     2.3571401192
Bq        -1.1872896913    -1.8282286534     1.4566331504
Bq        -1.1890596692    -1.6108150684     1.9068866348
Bq        -1.1892427325    -1.4772809587     1.9534549507
Bq        -1.1885347414    -1.5642463927     1.7733535569
Bq        -1.1895967281    -1.4337982417     2.0435056475
Bq        -1.1881807458    -1.6077291097     1.6833028600
Bq        -1.1899507237    -1.3903155247     2.1335563444
Bq        -1.1878267502    -1.6512118267     1.5932521631
Bq        -1.1903047192    -1.3468328077     2.2236070413
Bq        -1.1874727546    -1.6946945437     1.5032014662
Bq        -1.1906587148    -1.3033500907     2.3136577382
Bq        -1.1871187591    -1.7381772607     1.4131507694
Bq        -1.1888887369    -1.5207636757     1.8634042538
Bq        -1.1890718002    -1.3872295660     1.9099725696
Bq        -1.1883638091    -1.4741950001     1.7298711759
Bq        -1.1894257958    -1.3437468490     2.0000232665
Bq        -1.1880098135    -1.5176777171     1.6398204790
Bq        -1.1897797914    -1.3002641320     2.0900739634
Bq        -1.1876558179    -1.5611604341     1.5497697821
Bq        -1.1901337870    -1.2567814150     2.1801246603
Bq        -1.1873018224    -1.6046431511     1.4597190852
Bq        -1.1904877825    -1.2132986980     2.2701753572
Bq        -1.1869478268    -1.6481258681     1.3696683883
Bq        -1.1887178047    -1.4307122830     1.8199218727
Bq        -1.1889008680    -1.2971781734     1.8664901886
Bq        -1.1881928768    -1.3841436074     1.6863887948
Bq        -1.1892548635    -1.2536954564     1.9565408855
Bq        -1.1878388812    -1.4276263244     1.5963380979
Bq        -1.1896088591    -1.2102127394     2.0465915824
Bq        -1.1874848857    -1.4711090414     1.5062874011
Bq        -1.1899628547    -1.1667300224     2.1366422792
Bq        -1.1871308901    -1.5145917584     1.4162367042
Bq        -1.1903168503    -1.1232473054     2.2266929761
Bq        -1.1867768945    -1.5580744754     1.3261860073
Bq        -1.1885468724    -1.3406608904     1.7764394917
Bq        -1.1887299357    -1.2071267807     1.8230078076
Bq        -1.1880219445    -1.2940922147     1.6429064138
Bq        -1.1890839313    -1.1636440637     1.9130585044
Bq        -1.1876679490    -1.3375749317     1.5528557169
Bq        -1.1894379268    -1.1201613467     2.0031092013
Bq        -1.1873139534    -1.3810576487     1.4628050200
Bq        -1.1897919224    -1.0766786297     2.0931598982
Bq        -1.1869599578    -1.4245403657     1.3727543231
Bq        -1.1901459180    -1.0331959127     2.1832105951
Bq        -1.1866059622    -1.4680230827     1.2827036263
Bq        -1.1883759401    -1.2506094977     1.7329571107
Bq        -1.1885590034    -1.1170753880     1.7795254265
Bq        -1.1878510123    -1.2040408220     1.5994240328
Bq        -1.1889129990    -1.0735926710     1.8695761234
Bq        -1.1874970167    -1.2475235390     1.5093733359
Bq        -1.1892669946    -1.0301099540     1.9596268203
Bq        -1.1871430211    -1.2910062560     1.4193226390
Bq        -1.1896209901    -0.9866272370     2.0496775172
Bq        -1.1867890255    -1.3344889731     1.3292719421
Bq        -1.1899749857    -0.9431445200     2.1397282141
Bq        -1.1864350300    -1.3779716901     1.2392212452
Bq        -1.1882050078    -1.1605581050     1.6894747296
Bq        -1.1883880711    -1.0270239954     1.7360430455
Bq        -1.1876800800    -1.1139894294     1.5559416517
Bq        -1.1887420667    -0.9835412784     1.8260937424
Bq        -1.1873260844    -1.1574721464     1.4658909548
Bq        -1.1890960623    -0.9400585614     1.9161444393
Bq        -1.1869720888    -1.2009548634     1.3758402580
Bq        -1.1894500579    -0.8965758443     2.0061951361
Bq        -1.1866180933    -1.2444375804     1.2857895611
Bq        -1.1898040534    -0.8530931273     2.0962458330
Bq        -1.1862640977    -1.2879202974     1.1957388642
Bq        -1.1880340756    -1.0705067124     1.6459923486
Bq        -1.1882171389    -0.9369726027     1.6925606645
Bq        -1.1875091477    -1.0239380367     1.5124592707
Bq        -1.1885711344    -0.8934898857     1.7826113613
Bq        -1.1871551521    -1.0674207537     1.4224085738
Bq        -1.1889251300    -0.8500071687     1.8726620582
Bq        -1.1868011566    -1.1109034707     1.3323578769
Bq        -1.1892791256    -0.8065244517     1.9627127551
Bq        -1.1864471610    -1.1543861877     1.2423071800
Bq        -1.1896331212    -0.7630417347     2.0527634520
Bq        -1.1860931654    -1.1978689047     1.1522564832
Bq        -1.1878631433    -0.9804553197     1.6025099676
Bq        -1.1880462066    -0.8469212100     1.6490782834
Bq        -1.1873382154    -0.9338866440     1.4689768897
Bq        -1.1884002022    -0.8034384930     1.7391289803
Bq        -1.1869842199    -0.9773693610     1.3789261928
Bq        -1.1887541977    -0.7599557760     1.8291796772
Bq        -1.1866302243    -1.0208520780     1.2888754959
Bq        -1.1891081933    -0.7164730590     1.9192303741
Bq        -1.1862762287    -1.0643347950     1.1988247990
Bq        -1.1894621889    -0.6729903420     2.0092810710
Bq        -1.1859222331    -1.1078175120     1.1087741021
Bq        -1.1876922110    -0.8904039270     1.5590275865
Bq        -1.1878752743    -0.7568698173     1.6055959024
Bq        -1.1871672832    -0.8438352514     1.4254945086
Bq        -1.1882292699    -0.7133871003     1.6956465993
Bq        -1.1868132876    -0.8873179684     1.3354438117
Bq        -1.1885832655    -0.6699043833     1.7856972962
Bq        -1.1864592920    -0.9308006854     1.2453931149
Bq        -1.1889372610    -0.6264216663     1.8757479930
Bq        -1.1861052964    -0.9742834024     1.1553424180
Bq        -1.1892912566    -0.5829389493     1.9657986899
Bq        -1.1857513009    -1.0177661194     1.0652917211
Bq        -1.1875212787    -0.8003525344     1.5155452055
Bq        -1.1877043420    -0.6668184247     1.5621135214
Bq        -1.1869963509    -0.7537838587     1.3820121276
Bq        -1.1880583376    -0.6233357077     1.6521642182
Bq        -1.1866423553    -0.7972665757     1.2919614307
Bq        -1.1884123332    -0.5798529907     1.7422149151
Bq        -1.1862883597    -0.8407492927     1.2019107338
Bq        -1.1887663288    -0.5363702737     1.8322656120
Bq        -1.1859343642    -0.8842320097     1.1118600369
Bq        -1.1891203243    -0.4928875567     1.9223163089
Bq        -1.1855803686    -0.9277147267     1.0218093401
Bq        -1.1873503465    -0.7103011417     1.4720628245
Bq        -1.1875334098    -0.5767670320     1.5186311403
Bq        -1.1868254186    -0.6637324660     1.3385297466
Bq        -1.1878874053    -0.5332843150     1.6086818372
Bq        -1.1864714230    -0.7072151830     1.2484790497
Bq        -1.1882414009    -0.4898015980     1.6987325341
Bq        -1.1861174275    -0.7506979000     1.1584283528
Bq        -1.1885953965    -0.4463188810     1.7887832310
Bq        -1.1857634319    -0.7941806170     1.0683776559
Bq        -1.1889493921    -0.4028361640     1.8788339279
Bq        -1.1854094363    -0.8376633340     0.9783269590
Bq        -1.1871794142    -0.6202497490     1.4285804434
Bq        -1.1873624775    -0.4867156393     1.4751487593
Bq        -1.1866544863    -0.5736810733     1.2950473655
Bq        -1.1877164731    -0.4432329223     1.5651994562
Bq        -1.1863004908    -0.6171637904     1.2049966686
Bq        -1.1880704686    -0.3997502053     1.6552501531
Bq        -1.1859464952    -0.6606465074     1.1149459718
Bq        -1.1884244642    -0.3562674883     1.7453008499
Bq        -1.1855924996    -0.7041292244     1.0248952749
Bq        -1.1887784598    -0.3127847713     1.8353515468
Bq        -1.1852385040    -0.7476119414     0.9348445780
Bq        -1.1870084819    -0.5301983563     1.3850980624

1
2
3
4
5
6
7
8
9
10
11
12
13
14
15
16
17
18
19
20
21
22
23
24
25
26
27
28
29
30
31
32
33
34
35
36
37
38
39
40
41
42
43
44
45
46
47
48
49
50
51
52
53
54
55
56
57
58
59
60
61
62
63
64
65
66
67
68
69
70
71
72
73
74
75
76
77
78
79
80
81
82
83
84
85
86
87
88
89
90
91
92
93
94
95
96
97
98
99
100
101
102
103
104
105
106
107
108
109
110
111
112
113
114
115
116
117
118
119
120
121
122
123
124
125
126
127
128
129
130
131
132
133
134
135
136
137
138
139
140
141
142
143
144
145
146
147
148
149
150
151
152
153
154
155
156
157
158
159
160
161
162
163
164
165
166
167
168
169
170
171
172
173
174
175
176
177
178
179
180
181
182
183
184
185
186
187
188
189
190
191
192
193
194
195
196
197
198
199
200
201
202
203
204
205
206
207
208
209
210
211
212
213
214
215
216
217
218
219
220
221
222
223
224
225
226
227
228
229
230
231
232
233
234
235
236

