%nproc=8
%mem=1000MB
# rb3lyp/6-311+g** NMR geom=connectivity

Title

0 1
C    -4.0500558   -0.5771862    0.8136712
H    -5.0263804   -1.0082727    1.0024760
C    -3.9381552    0.6617804    0.2400876
H    -4.8252424    1.2338890   -0.0111295
C    -2.6768410    1.2433246    0.0057578
C    -1.4974121    0.5051527    0.2848253
C    -1.6508332   -0.7338728    0.9404026
H    -0.7713646   -1.2730967    1.2633753
C    -2.8898548   -1.2624035    1.1994307
H    -2.9683706   -2.2124563    1.7152676
C    -2.5773185    2.5963696   -0.4192930
H    -3.4870728    3.1412239   -0.6474055
C    -1.3741895    3.2147896   -0.4364030
H    -1.2997315    4.2742019   -0.6578144
C    -0.1719488    2.4994090   -0.1734588
C    -0.2043917    1.1018437    0.0192689
C     1.0513491    3.2042560   -0.0676222
H     1.0427344    4.2819499   -0.1896997
C     2.1942091    2.5487446    0.2579577
H     3.1168527    3.0912848    0.4334727
C     2.2216473    1.1336562    0.2934990
C     1.0486931    0.3945528    0.0302412
C     3.4483363    0.4614633    0.5573939
H     4.3095794    1.0606054    0.8334846
C     3.5427346   -0.8855926    0.4749463
H     4.4731467   -1.3939704    0.7038822
C     2.4490052   -1.6474447   -0.0196319
C     1.2150704   -1.0057258   -0.3013573
C     0.2531113   -1.7434440   -1.0216591
H    -0.6541356   -1.2535051   -1.3462847
C     0.4494193   -3.0628597   -1.3413779
H    -0.3083162   -3.5944309   -1.9054060
C     1.6251726   -3.7207967   -0.9552541
H     1.7670048   -4.7687404   -1.1927019
C     2.6109872   -3.0144177   -0.3183050
H     3.5525612   -3.4902813   -0.0646367
Bq         2.1050025662     2.9173285709     0.2647559769
Bq         1.9747189888     2.9615499366     1.1541775081
Bq         2.1194785193     2.9124150858     0.1659313623
Bq         2.0470987541     2.9369825112     0.6600544352
Bq         2.0333349350     3.0417752117     0.7540174450
Bq         2.0622868410     3.0319482415     0.5563682159
Bq         2.0188589819     3.0466886968     0.8528420596
Bq         2.0767627941     3.0270347564     0.4575436013
Bq         2.0043830289     3.0516021819     0.9516666742
Bq         2.0912387471     3.0221212714     0.3587189867
Bq         1.9899070758     3.0565156669     1.0504912888
Bq         2.1057147002     3.0172077863     0.2598943721
Bq         1.9754311228     3.0614291520     1.1493159034
Bq         2.1201906532     3.0122943012     0.1610697575
Bq         2.0478108880     3.0368617266     0.6551928304
Bq         2.0340470689     3.1416544271     0.7491558403
Bq         2.0629989750     3.1318274569     0.5515066111
Bq         2.0195711159     3.1465679121     0.8479804548
Bq         2.0774749280     3.1269139718     0.4526819965
Bq         2.0050951628     3.1514813972     0.9468050694
Bq         2.0919508811     3.1220004867     0.3538573819
Bq         1.9906192098     3.1563948823     1.0456296840
Bq         2.1064268341     3.1170870017     0.2550327673
Bq         1.9761432567     3.1613083674     1.1444542986
Bq         2.1209027872     3.1121735166     0.1562081528
Bq         2.0485230219     3.1367409420     0.6503312257
Bq         2.0347592028     3.2415336424     0.7442942355
Bq         2.0637111089     3.2317066723     0.5466450063
Bq         2.0202832498     3.2464471275     0.8431188501
Bq         2.0781870620     3.2267931872     0.4478203917
Bq         2.0058072967     3.2513606126     0.9419434647
Bq         2.0926630150     3.2218797021     0.3489957772
Bq         1.9913313437     3.2562740977     1.0407680793
Bq         2.1071389681     3.2169662170     0.2501711626
Bq         1.9768553907     3.2611875828     1.1395926938
Bq         2.1216149211     3.2120527319     0.1513465480
Bq         2.0492351559     3.2366201574     0.6454696209
Bq         2.0354713368     3.3414128578     0.7394326307
Bq         2.0644232429     3.3315858877     0.5417834016
Bq         2.0209953837     3.3463263429     0.8382572453
Bq         2.0788991959     3.3266724026     0.4429587870
Bq         2.0065194307     3.3512398280     0.9370818599
Bq         2.0933751490     3.3217589175     0.3441341724
Bq         1.9920434776     3.3561533131     1.0359064745
Bq         2.1078511020     3.3168454324     0.2453095578
Bq         1.9775675246     3.3610667981     1.1347310891
Bq         2.1223270550     3.3119319473     0.1464849432
Bq         2.0499472898     3.3364993727     0.6406080161
Bq         2.0361834707     3.4412920732     0.7345710260
Bq         2.0651353768     3.4314651030     0.5369217968
Bq         2.0217075177     3.4462055583     0.8333956405
Bq         2.0796113299     3.4265516179     0.4380971822
Bq         2.0072315646     3.4511190434     0.9322202551
Bq         2.0940872829     3.4216381329     0.3392725676
Bq         1.9927556116     3.4560325284     1.0310448697
Bq         2.1085632359     3.4167246478     0.2404479530
Bq         1.9782796585     3.4609460135     1.1298694843
Bq         2.1230391890     3.4118111627     0.1416233385
Bq         2.0506594238     3.4363785881     0.6357464114
Bq         2.0368956047     3.5411712886     0.7297094212
Bq         2.0658475108     3.5313443184     0.5320601920
Bq         2.0224196516     3.5460847737     0.8285340358
Bq         2.0803234638     3.5264308333     0.4332355774
Bq         2.0079436986     3.5509982587     0.9273586504
Bq         2.0947994168     3.5215173482     0.3344109629
Bq         1.9934677455     3.5559117438     1.0261832650
Bq         2.1092753699     3.5166038632     0.2355863483
Bq         1.9789917925     3.5608252289     1.1250078795
Bq         2.1237513229     3.5116903781     0.1367617337
Bq         2.0513715577     3.5362578035     0.6308848066
Bq         2.0376077386     3.6410505039     0.7248478164
Bq         2.0665596447     3.6312235338     0.5271985873
Bq         2.0231317856     3.6459639890     0.8236724310
Bq         2.0810355977     3.6263100487     0.4283739727
Bq         2.0086558325     3.6508774741     0.9224970456
Bq         2.0955115508     3.6213965636     0.3295493581
Bq         1.9941798795     3.6557909592     1.0213216602
Bq         2.1099875038     3.6164830785     0.2307247435
Bq         1.9797039264     3.6607044443     1.1201462748
Bq         2.1244634569     3.6115695935     0.1319001289
Bq         2.0520836916     3.6361370189     0.6260232018
Bq         2.0383198725     3.7409297193     0.7199862117
Bq         2.0672717786     3.7311027492     0.5223369825
Bq         2.0238439195     3.7458432044     0.8188108262
Bq         2.0817477317     3.7261892641     0.4235123679
Bq         2.0093679665     3.7507566895     0.9176354408
Bq         2.0962236847     3.7212757790     0.3246877533
Bq         1.9948920134     3.7556701746     1.0164600554
Bq         2.1106996378     3.7163622939     0.2258631387
Bq         1.9804160604     3.7605836597     1.1152846700
Bq         2.1251755908     3.7114488088     0.1270385242
Bq         2.0527958256     3.7360162342     0.6211615971
Bq         2.0390320065     3.8408089347     0.7151246069
Bq         2.0679839126     3.8309819645     0.5174753777
Bq         2.0245560534     3.8457224198     0.8139492215
Bq         2.0824598656     3.8260684795     0.4186507631
Bq         2.0100801004     3.8506359049     0.9127738361
Bq         2.0969358187     3.8211549944     0.3198261486
Bq         1.9956041474     3.8555493900     1.0115984507
Bq         2.1114117717     3.8162415093     0.2210015340
Bq         1.9811281943     3.8604628750     1.1104230652
Bq         2.1258877248     3.8113280242     0.1221769194
Bq         2.0535079595     3.8358954496     0.6162999923
Bq         2.0397441404     3.9406881501     0.7102630021
Bq         2.0686960465     3.9308611799     0.5126137730
Bq         2.0252681874     3.9456016352     0.8090876167
Bq         2.0831719996     3.9259476948     0.4137891584
Bq         2.0107922343     3.9505151202     0.9079122313
Bq         2.0976479526     3.9210342098     0.3149645438
Bq         1.9963162813     3.9554286053     1.0067368459
Bq         2.1121239057     3.9161207247     0.2161399292
Bq         1.9818403283     3.9603420904     1.1055614605
Bq         2.1265998587     3.9112072396     0.1173153146
Bq         2.0542200935     3.9357746650     0.6114383875
Bq         2.0404562744     4.0405673655     0.7054013974
Bq         2.0694081805     4.0307403953     0.5077521682
Bq         2.0259803213     4.0454808505     0.8042260120
Bq         2.0838841335     4.0258269102     0.4089275536
Bq         2.0115043683     4.0503943356     0.9030506265
Bq         2.0983600865     4.0209134251     0.3101029390
Bq         1.9970284152     4.0553078207     1.0018752411
Bq         2.1128360396     4.0159999400     0.2112783244
Bq         1.9825524622     4.0602213058     1.1006998557
Bq         2.1273119926     4.0110864550     0.1124537099
Bq         2.0549322274     4.0356538804     0.6065767828
Bq         2.0411684083     4.1404465808     0.7005397926
Bq         2.0701203144     4.1306196107     0.5028905634
Bq         2.0266924553     4.1453600659     0.7993644072
Bq         2.0845962674     4.1257061256     0.4040659488
Bq         2.0122165022     4.1502735510     0.8981890218
Bq         2.0990722205     4.1207926405     0.3052413343
Bq         1.9977405492     4.1551870361     0.9970136364
Bq         2.1135481735     4.1158791554     0.2064167197
Bq         1.9832645961     4.1601005212     1.0958382509
Bq         2.1280241266     4.1109656703     0.1075921051
Bq         2.0556443614     4.1355330958     0.6017151780
Bq         2.0418805423     4.2403257962     0.6956781878
Bq         2.0708324483     4.2304988260     0.4980289587
Bq         2.0274045892     4.2452392813     0.7945028024
Bq         2.0853084014     4.2255853410     0.3992043441
Bq         2.0129286362     4.2501527664     0.8933274170
Bq         2.0997843544     4.2206718559     0.3003797295
Bq         1.9984526831     4.2550662515     0.9921520316
Bq         2.1142603075     4.2157583708     0.2015551149
Bq         1.9839767301     4.2599797365     1.0909766462
Bq         2.1287362605     4.2108448857     0.1027305003
Bq         2.0563564953     4.2354123111     0.5968535732
Bq         2.0425926762     4.3402050116     0.6908165831
Bq         2.0715445823     4.3303780414     0.4931673539
Bq         2.0281167232     4.3451184967     0.7896411977
Bq         2.0860205353     4.3254645563     0.3943427393
Bq         2.0136407701     4.3500319818     0.8884658122
Bq         2.1004964884     4.3205510713     0.2955181247
Bq         1.9991648171     4.3549454668     0.9872904268
Bq         2.1149724414     4.3156375862     0.1966935101
Bq         1.9846888640     4.3598589519     1.0861150414
Bq         2.1294483945     4.3107241011     0.0978688956
Bq         2.0570686292     4.3352915265     0.5919919685
Bq         2.1059301030    -0.6537557573     0.9483902803
Bq         2.1348820091    -0.6635827274     0.7507410511
Bq         2.0914541499    -0.6488422722     1.0472148949
Bq         2.1493579621    -0.6684962125     0.6519164365
Bq         2.0769781969    -0.6439287871     1.1460395095
Bq         2.1638339152    -0.6734096976     0.5530918220
Bq         2.0625022439    -0.6390153020     1.2448641241
Bq         2.1783098682    -0.6783231827     0.4542672074
Bq         2.0480262908    -0.6341018169     1.3436887386
Bq         2.1927858212    -0.6832366678     0.3554425928
Bq         2.1204060560    -0.6586692423     0.8495656657
Bq         2.1066422369    -0.5538765419     0.9435286755
Bq         2.1355941430    -0.5637035121     0.7458794464
Bq         2.0921662839    -0.5489630568     1.0423532901
Bq         2.1500700961    -0.5686169971     0.6470548318
Bq         2.0776903308    -0.5440495717     1.1411779047
Bq         2.1645460491    -0.5735304822     0.5482302172
Bq         2.0632143778    -0.5391360866     1.2400025193
Bq         2.1790220021    -0.5784439673     0.4494056026
Bq         2.0487384247    -0.5342226016     1.3388271339
Bq         2.1934979552    -0.5833574524     0.3505809880
Bq         2.1211181900    -0.5587900270     0.8447040610
Bq         2.1073543709    -0.4539973265     0.9386670708
Bq         2.1363062770    -0.4638242967     0.7410178416
Bq         2.0928784178    -0.4490838414     1.0374916854
Bq         2.1507822300    -0.4687377818     0.6421932270
Bq         2.0784024648    -0.4441703563     1.1363162999
Bq         2.1652581830    -0.4736512668     0.5433686124
Bq         2.0639265117    -0.4392568713     1.2351409145
Bq         2.1797341361    -0.4785647519     0.4445439978
Bq         2.0494505587    -0.4343433862     1.3339655291
Bq         2.1942100891    -0.4834782370     0.3457193833
Bq         2.1218303239    -0.4589108116     0.8398424562
Bq         2.1080665048    -0.3541181111     0.9338054660
Bq         2.1370184109    -0.3639450813     0.7361562368
Bq         2.0935905518    -0.3492046261     1.0326300806
Bq         2.1514943639    -0.3688585664     0.6373316223
Bq         2.0791145987    -0.3442911410     1.1314546952
Bq         2.1659703170    -0.3737720515     0.5385070077
Bq         2.0646386457    -0.3393776559     1.2302793098
Bq         2.1804462700    -0.3786855365     0.4396823931
Bq         2.0501626926    -0.3344641708     1.3291039243

1
2
3
4
5
6
7
8
9
10
11
12
13
14
15
16
17
18
19
20
21
22
23
24
25
26
27
28
29
30
31
32
33
34
35
36
37
38
39
40
41
42
43
44
45
46
47
48
49
50
51
52
53
54
55
56
57
58
59
60
61
62
63
64
65
66
67
68
69
70
71
72
73
74
75
76
77
78
79
80
81
82
83
84
85
86
87
88
89
90
91
92
93
94
95
96
97
98
99
100
101
102
103
104
105
106
107
108
109
110
111
112
113
114
115
116
117
118
119
120
121
122
123
124
125
126
127
128
129
130
131
132
133
134
135
136
137
138
139
140
141
142
143
144
145
146
147
148
149
150
151
152
153
154
155
156
157
158
159
160
161
162
163
164
165
166
167
168
169
170
171
172
173
174
175
176
177
178
179
180
181
182
183
184
185
186
187
188
189
190
191
192
193
194
195
196
197
198
199
200
201
202
203
204
205
206
207
208
209
210
211
212
213
214
215
216
217
218
219
220
221
222
223
224
225
226
227
228
229
230
231
232
233
234
235
236

