%nproc=8
%mem=1000MB
# rb3lyp/6-311+g** NMR geom=connectivity

Title

0 1
C    -4.0500558   -0.5771862    0.8136712
H    -5.0263804   -1.0082727    1.0024760
C    -3.9381552    0.6617804    0.2400876
H    -4.8252424    1.2338890   -0.0111295
C    -2.6768410    1.2433246    0.0057578
C    -1.4974121    0.5051527    0.2848253
C    -1.6508332   -0.7338728    0.9404026
H    -0.7713646   -1.2730967    1.2633753
C    -2.8898548   -1.2624035    1.1994307
H    -2.9683706   -2.2124563    1.7152676
C    -2.5773185    2.5963696   -0.4192930
H    -3.4870728    3.1412239   -0.6474055
C    -1.3741895    3.2147896   -0.4364030
H    -1.2997315    4.2742019   -0.6578144
C    -0.1719488    2.4994090   -0.1734588
C    -0.2043917    1.1018437    0.0192689
C     1.0513491    3.2042560   -0.0676222
H     1.0427344    4.2819499   -0.1896997
C     2.1942091    2.5487446    0.2579577
H     3.1168527    3.0912848    0.4334727
C     2.2216473    1.1336562    0.2934990
C     1.0486931    0.3945528    0.0302412
C     3.4483363    0.4614633    0.5573939
H     4.3095794    1.0606054    0.8334846
C     3.5427346   -0.8855926    0.4749463
H     4.4731467   -1.3939704    0.7038822
C     2.4490052   -1.6474447   -0.0196319
C     1.2150704   -1.0057258   -0.3013573
C     0.2531113   -1.7434440   -1.0216591
H    -0.6541356   -1.2535051   -1.3462847
C     0.4494193   -3.0628597   -1.3413779
H    -0.3083162   -3.5944309   -1.9054060
C     1.6251726   -3.7207967   -0.9552541
H     1.7670048   -4.7687404   -1.1927019
C     2.6109872   -3.0144177   -0.3183050
H     3.5525612   -3.4902813   -0.0646367
Bq         4.5400370565    -1.8282881647     1.1625965141
Bq         4.5913947852    -1.7998328466     0.9714089659
Bq         4.5143581922    -1.8425158237     1.2581902882
Bq         4.6170736495    -1.7856051876     0.8758151918
Bq         4.4886793279    -1.8567434828     1.3537840623
Bq         4.6427525138    -1.7713775286     0.7802214177
Bq         4.4630004636    -1.8709711418     1.4493778364
Bq         4.6684313782    -1.7571498696     0.6846276436
Bq         4.4373215993    -1.8851988008     1.5449716105
Bq         4.6941102425    -1.7429222105     0.5890338696
Bq         4.5657159209    -1.8140605057     1.0670027400
Bq         4.5363460060    -1.7293054707     1.1763370537
Bq         4.5877037347    -1.7008501526     0.9851495055
Bq         4.5106671417    -1.7435331297     1.2719308278
Bq         4.6133825990    -1.6866224936     0.8895557314
Bq         4.4849882774    -1.7577607887     1.3675246019
Bq         4.6390614633    -1.6723948346     0.7939619573
Bq         4.4593094130    -1.7719884478     1.4631183760
Bq         4.6647403276    -1.6581671755     0.6983681832
Bq         4.4336305487    -1.7862161068     1.5587121501
Bq         4.6904191919    -1.6439395165     0.6027744091
Bq         4.5620248703    -1.7150778116     1.0807432796
Bq         4.5326549555    -1.6303227766     1.1900775932
Bq         4.5840126841    -1.6018674586     0.9988900450
Bq         4.5069760912    -1.6445504357     1.2856713673
Bq         4.6096915484    -1.5876397995     0.9032962710
Bq         4.4812972268    -1.6587780947     1.3812651414
Bq         4.6353704128    -1.5734121405     0.8077024969
Bq         4.4556183625    -1.6730057537     1.4768589155
Bq         4.6610492771    -1.5591844815     0.7121087228
Bq         4.4299394982    -1.6872334127     1.5724526896
Bq         4.6867281414    -1.5449568225     0.6165149487
Bq         4.5583338198    -1.6160951176     1.0944838191
Bq         4.5289639049    -1.5313400826     1.2038181328
Bq         4.5803216336    -1.5028847645     1.0126305846
Bq         4.5032850406    -1.5455677416     1.2994119069
Bq         4.6060004979    -1.4886571055     0.9170368105
Bq         4.4776061763    -1.5597954007     1.3950056810
Bq         4.6316793622    -1.4744294465     0.8214430364
Bq         4.4519273120    -1.5740230597     1.4905994551
Bq         4.6573582266    -1.4602017875     0.7258492623
Bq         4.4262484476    -1.5882507187     1.5861932292
Bq         4.6830370909    -1.4459741284     0.6302554882
Bq         4.5546427693    -1.5171124236     1.1082243587
Bq         4.5252728544    -1.4323573886     1.2175586724
Bq         4.5766305830    -1.4039020705     1.0263711242
Bq         4.4995939901    -1.4465850476     1.3131524465
Bq         4.6023094474    -1.3896744115     0.9307773501
Bq         4.4739151258    -1.4608127066     1.4087462205
Bq         4.6279883117    -1.3754467524     0.8351835760
Bq         4.4482362614    -1.4750403656     1.5043399946
Bq         4.6536671760    -1.3612190934     0.7395898019
Bq         4.4225573971    -1.4892680247     1.5999337687
Bq         4.6793460403    -1.3469914344     0.6439960278
Bq         4.5509517187    -1.4181297295     1.1219648983
Bq         4.5215818039    -1.3333746945     1.2312992119
Bq         4.5729395325    -1.3049193765     1.0401116637
Bq         4.4959029395    -1.3476023536     1.3268929860
Bq         4.5986183968    -1.2906917174     0.9445178896
Bq         4.4702240752    -1.3618300126     1.4224867601
Bq         4.6242972612    -1.2764640584     0.8489241155
Bq         4.4445452109    -1.3760576716     1.5180805342
Bq         4.6499761255    -1.2622363994     0.7533303414
Bq         4.4188663466    -1.3902853306     1.6136743083
Bq         4.6756549898    -1.2480087404     0.6577365673
Bq         4.5472606682    -1.3191470355     1.1357054378
Bq         4.5178907533    -1.2343920005     1.2450397515
Bq         4.5692484820    -1.2059366824     1.0538522033
Bq         4.4922118890    -1.2486196595     1.3406335256
Bq         4.5949273463    -1.1917090234     0.9582584292
Bq         4.4665330247    -1.2628473185     1.4362272997
Bq         4.6206062106    -1.1774813644     0.8626646551
Bq         4.4408541604    -1.2770749776     1.5318210738
Bq         4.6462850749    -1.1632537054     0.7670708810
Bq         4.4151752960    -1.2913026366     1.6274148479
Bq         4.6719639393    -1.1490260463     0.6714771069
Bq         4.5435696177    -1.2201643415     1.1494459774
Bq         4.5141997028    -1.1354093065     1.2587802910
Bq         4.5655574314    -1.1069539884     1.0675927428
Bq         4.4885208385    -1.1496369655     1.3543740651
Bq         4.5912362958    -1.0927263294     0.9719989687
Bq         4.4628419742    -1.1638646245     1.4499678392
Bq         4.6169151601    -1.0784986703     0.8764051947
Bq         4.4371631098    -1.1780922835     1.5455616133
Bq         4.6425940244    -1.0642710113     0.7808114206
Bq         4.4114842455    -1.1923199426     1.6411553874
Bq         4.6682728887    -1.0500433523     0.6852176465
Bq         4.5398785671    -1.1211816474     1.1631865169
Bq         4.5105086523    -1.0364266124     1.2725208306
Bq         4.5618663809    -1.0079712944     1.0813332824
Bq         4.4848297879    -1.0506542714     1.3681146047
Bq         4.5875452452    -0.9937436353     0.9857395083
Bq         4.4591509236    -1.0648819305     1.4637083788
Bq         4.6132241096    -0.9795159763     0.8901457342
Bq         4.4334720593    -1.0791095895     1.5593021529
Bq         4.6389029739    -0.9652883173     0.7945519601
Bq         4.4077931950    -1.0933372485     1.6548959270
Bq         4.6645818382    -0.9510606583     0.6989581860
Bq         4.5361875166    -1.0221989534     1.1769270565
Bq         4.5068176017    -0.9374439184     1.2862613702
Bq         4.5581753304    -0.9089886003     1.0950738220
Bq         4.4811387374    -0.9516715774     1.3818551442
Bq         4.5838541947    -0.8947609413     0.9994800479
Bq         4.4554598731    -0.9658992364     1.4774489183
Bq         4.6095330590    -0.8805332823     0.9038862738
Bq         4.4297810088    -0.9801268955     1.5730426924
Bq         4.6352119233    -0.8663056232     0.8082924997
Bq         4.4041021444    -0.9943545545     1.6686364665
Bq         4.6608907877    -0.8520779642     0.7126987256
Bq         4.5324964660    -0.9232162594     1.1906675961
Bq         4.5031265512    -0.8384612243     1.3000019097
Bq         4.5544842798    -0.8100059063     1.1088143615
Bq         4.4774476869    -0.8526888834     1.3955956838
Bq         4.5801631442    -0.7957782473     1.0132205874
Bq         4.4517688225    -0.8669165424     1.4911894579
Bq         4.6058420085    -0.7815505882     0.9176268133
Bq         4.4260899582    -0.8811442014     1.5867832320
Bq         4.6315208728    -0.7673229292     0.8220330392
Bq         4.4004110939    -0.8953718605     1.6823770061
Bq         4.6571997371    -0.7530952702     0.7264392651
Bq         4.5288054155    -0.8242335653     1.2044081356
Bq         4.4994355007    -0.7394785303     1.3137424493
Bq         4.5507932293    -0.7110232123     1.1225549011
Bq         4.4737566363    -0.7537061893     1.4093362234
Bq         4.5764720936    -0.6967955532     1.0269611270
Bq         4.4480777720    -0.7679338484     1.5049299975
Bq         4.6021509579    -0.6825678942     0.9313673529
Bq         4.4223989077    -0.7821615074     1.6005237716
Bq         4.6278298223    -0.6683402352     0.8357735788
Bq         4.3967200434    -0.7963891664     1.6961175456
Bq         4.6535086866    -0.6541125761     0.7401798047
Bq         4.5251143650    -0.7252508713     1.2181486752
Bq         4.4957444501    -0.6404958363     1.3274829888
Bq         4.5471021788    -0.6120405182     1.1362954406
Bq         4.4700655858    -0.6547234953     1.4230767629
Bq         4.5727810431    -0.5978128592     1.0407016665
Bq         4.4443867215    -0.6689511543     1.5186705370
Bq         4.5984599074    -0.5835852002     0.9451078924
Bq         4.4187078572    -0.6831788134     1.6142643111
Bq         4.6241387717    -0.5693575411     0.8495141184
Bq         4.3930289928    -0.6974064724     1.7098580852
Bq         4.6498176361    -0.5551298821     0.7539203443
Bq         4.5214233144    -0.6262681772     1.2318892147
Bq         4.4920533996    -0.5415131422     1.3412235284
Bq         4.5434111282    -0.5130578242     1.1500359802
Bq         4.4663745353    -0.5557408013     1.4368173025
Bq         4.5690899926    -0.4988301652     1.0544422061
Bq         4.4406956709    -0.5699684603     1.5324110766
Bq         4.5947688569    -0.4846025061     0.9588484320
Bq         4.4150168066    -0.5841961193     1.6280048507
Bq         4.6204477212    -0.4703748471     0.8632546579
Bq         4.3893379423    -0.5984237784     1.7235986248
Bq         4.6461265855    -0.4561471881     0.7676608838
Bq         4.5177322639    -0.5272854832     1.2456297543
Bq         4.4883623491    -0.4425304482     1.3549640679
Bq         4.5397200777    -0.4140751301     1.1637765198
Bq         4.4626834847    -0.4567581072     1.4505578420
Bq         4.5653989420    -0.3998474711     1.0681827457
Bq         4.4370046204    -0.4709857663     1.5461516161
Bq         4.5910778063    -0.3856198121     0.9725889716
Bq         4.4113257561    -0.4852134253     1.6417453902
Bq         4.6167566707    -0.3713921531     0.8769951975
Bq         4.3856468918    -0.4994410843     1.7373391643
Bq         4.6424355350    -0.3571644940     0.7814014234
Bq         4.5140412134    -0.4283027892     1.2593702939
Bq         4.4846712985    -0.3435477542     1.3687046075
Bq         4.5360290272    -0.3150924361     1.1775170593
Bq         4.4589924342    -0.3577754132     1.4642983816
Bq         4.5617078915    -0.3008647771     1.0819232852
Bq         4.4333135699    -0.3720030722     1.5598921557
Bq         4.5873867558    -0.2866371181     0.9863295111
Bq         4.4076347055    -0.3862307313     1.6554859298
Bq         4.6130656201    -0.2724094590     0.8907357370
Bq         4.3819558412    -0.4004583903     1.7510797039
Bq         4.6387444844    -0.2581818000     0.7951419629
Bq         4.5103501628    -0.3293200951     1.2731108334
Bq         4.4809802480    -0.2445650601     1.3824451471
Bq         4.5323379766    -0.2161097421     1.1912575989
Bq         4.4553013837    -0.2587927192     1.4780389212
Bq         4.5580168409    -0.2018820830     1.0956638248
Bq         4.4296225193    -0.2730203782     1.5736326953
Bq         4.5836957053    -0.1876544240     1.0000700507
Bq         4.4039436550    -0.2872480372     1.6692264693
Bq         4.6093745696    -0.1734267650     0.9044762766
Bq         4.3782647907    -0.3014756962     1.7648202434
Bq         4.6350534339    -0.1591991060     0.8088825025
Bq         4.5066591123    -0.2303374011     1.2868513730
Bq         4.4772891974    -0.1455823661     1.3961856866
Bq         4.5286469261    -0.1171270480     1.2049981384
Bq         4.4516103331    -0.1598100251     1.4917794607
Bq         4.5543257904    -0.1028993890     1.1094043643
Bq         4.4259314688    -0.1740376842     1.5873732348
Bq         4.5800046547    -0.0886717300     1.0138105902
Bq         4.4002526045    -0.1882653432     1.6829670089
Bq         4.6056835191    -0.0744440710     0.9182168161
Bq         4.3745737402    -0.2024930022     1.7785607830
Bq         4.6313623834    -0.0602164119     0.8226230421
Bq         4.5029680618    -0.1313547071     1.3005919125
Bq         4.4735981469    -0.0465996721     1.4099262262
Bq         4.5249558756    -0.0181443540     1.2187386780

1
2
3
4
5
6
7
8
9
10
11
12
13
14
15
16
17
18
19
20
21
22
23
24
25
26
27
28
29
30
31
32
33
34
35
36
37
38
39
40
41
42
43
44
45
46
47
48
49
50
51
52
53
54
55
56
57
58
59
60
61
62
63
64
65
66
67
68
69
70
71
72
73
74
75
76
77
78
79
80
81
82
83
84
85
86
87
88
89
90
91
92
93
94
95
96
97
98
99
100
101
102
103
104
105
106
107
108
109
110
111
112
113
114
115
116
117
118
119
120
121
122
123
124
125
126
127
128
129
130
131
132
133
134
135
136
137
138
139
140
141
142
143
144
145
146
147
148
149
150
151
152
153
154
155
156
157
158
159
160
161
162
163
164
165
166
167
168
169
170
171
172
173
174
175
176
177
178
179
180
181
182
183
184
185
186
187
188
189
190
191
192
193
194
195
196
197
198
199
200
201
202
203
204
205
206
207
208
209
210
211
212
213
214
215
216
217
218
219
220
221
222
223
224
225
226
227
228
229
230
231
232
233
234
235
236

