%nproc=8
%mem=1000MB
# rb3lyp/6-311+g** NMR geom=connectivity

Title

0 1
C    -4.0500558   -0.5771862    0.8136712
H    -5.0263804   -1.0082727    1.0024760
C    -3.9381552    0.6617804    0.2400876
H    -4.8252424    1.2338890   -0.0111295
C    -2.6768410    1.2433246    0.0057578
C    -1.4974121    0.5051527    0.2848253
C    -1.6508332   -0.7338728    0.9404026
H    -0.7713646   -1.2730967    1.2633753
C    -2.8898548   -1.2624035    1.1994307
H    -2.9683706   -2.2124563    1.7152676
C    -2.5773185    2.5963696   -0.4192930
H    -3.4870728    3.1412239   -0.6474055
C    -1.3741895    3.2147896   -0.4364030
H    -1.2997315    4.2742019   -0.6578144
C    -0.1719488    2.4994090   -0.1734588
C    -0.2043917    1.1018437    0.0192689
C     1.0513491    3.2042560   -0.0676222
H     1.0427344    4.2819499   -0.1896997
C     2.1942091    2.5487446    0.2579577
H     3.1168527    3.0912848    0.4334727
C     2.2216473    1.1336562    0.2934990
C     1.0486931    0.3945528    0.0302412
C     3.4483363    0.4614633    0.5573939
H     4.3095794    1.0606054    0.8334846
C     3.5427346   -0.8855926    0.4749463
H     4.4731467   -1.3939704    0.7038822
C     2.4490052   -1.6474447   -0.0196319
C     1.2150704   -1.0057258   -0.3013573
C     0.2531113   -1.7434440   -1.0216591
H    -0.6541356   -1.2535051   -1.3462847
C     0.4494193   -3.0628597   -1.3413779
H    -0.3083162   -3.5944309   -1.9054060
C     1.6251726   -3.7207967   -0.9552541
H     1.7670048   -4.7687404   -1.1927019
C     2.6109872   -3.0144177   -0.3183050
H     3.5525612   -3.4902813   -0.0646367
Bq         4.4794203753     1.4245239986     1.0027883536
Bq         4.3510260537     1.3533857035     1.4807572241
Bq         4.3216561388     1.4381407385     1.5900915378
Bq         4.3730138675     1.4665960565     1.3989039896
Bq         4.2959772745     1.4239130794     1.6856853119
Bq         4.3986927318     1.4808237156     1.3033102155
Bq         4.2702984102     1.4096854204     1.7812790860
Bq         4.4243715961     1.4950513746     1.2077164414
Bq         4.2446195459     1.3954577614     1.8768728601
Bq         4.4500504604     1.5092790336     1.1121226673
Bq         4.2189406815     1.3812301024     1.9724666342
Bq         4.4757293248     1.5235066926     1.0165288932
Bq         4.3473350032     1.4523683975     1.4944977637
Bq         4.3179650883     1.5371234325     1.6038320773
Bq         4.3693228169     1.5655787506     1.4126445291
Bq         4.2922862240     1.5228957735     1.6994258514
Bq         4.3950016813     1.5798064096     1.3170507550
Bq         4.2666073597     1.5086681145     1.7950196255
Bq         4.4206805456     1.5940340686     1.2214569810
Bq         4.2409284953     1.4944404554     1.8906133996
Bq         4.4463594099     1.6082617277     1.1258632069
Bq         4.2152496310     1.4802127964     1.9862071737
Bq         4.4720382742     1.6224893867     1.0302694328
Bq         4.3436439526     1.5513510915     1.5082383032
Bq         4.3142740378     1.6361061265     1.6175726169
Bq         4.3656317664     1.6645614446     1.4263850687
Bq         4.2885951734     1.6218784675     1.7131663910
Bq         4.3913106307     1.6787891036     1.3307912946
Bq         4.2629163091     1.6076508085     1.8087601651
Bq         4.4169894951     1.6930167627     1.2351975205
Bq         4.2372374448     1.5934231495     1.9043539392
Bq         4.4426683594     1.7072444217     1.1396037464
Bq         4.2115585805     1.5791954904     1.9999477133
Bq         4.4683472237     1.7214720807     1.0440099723
Bq         4.3399529021     1.6503337856     1.5219788428
Bq         4.3105829872     1.7350888206     1.6313131565
Bq         4.3619407159     1.7635441386     1.4401256083
Bq         4.2849041229     1.7208611616     1.7269069305
Bq         4.3876195802     1.7777717977     1.3445318342
Bq         4.2592252586     1.7066335025     1.8225007046
Bq         4.4132984445     1.7919994567     1.2489380601
Bq         4.2335463943     1.6924058435     1.9180944787
Bq         4.4389773088     1.8062271157     1.1533442860
Bq         4.2078675299     1.6781781845     2.0136882528
Bq         4.4646561732     1.8204547748     1.0577505119
Bq         4.3362618515     1.7493164796     1.5357193824
Bq         4.3068919367     1.8340715146     1.6450536960
Bq         4.3582496653     1.8625268327     1.4538661478
Bq         4.2812130724     1.8198438556     1.7406474701
Bq         4.3839285297     1.8767544917     1.3582723737
Bq         4.2555342080     1.8056161966     1.8362412442
Bq         4.4096073940     1.8909821507     1.2626785996
Bq         4.2298553437     1.7913885375     1.9318350183
Bq         4.4352862583     1.9052098098     1.1670848255
Bq         4.2041764794     1.7771608785     2.0274287924
Bq         4.4609651226     1.9194374688     1.0714910514
Bq         4.3325708010     1.8482991736     1.5494599219
Bq         4.3032008862     1.9330542087     1.6587942356
Bq         4.3545586148     1.9615095267     1.4676066874
Bq         4.2775220218     1.9188265496     1.7543880097
Bq         4.3802374791     1.9757371857     1.3720129133
Bq         4.2518431575     1.9045988906     1.8499817838
Bq         4.4059163434     1.9899648448     1.2764191392
Bq         4.2261642932     1.8903712316     1.9455755579
Bq         4.4315952078     2.0041925038     1.1808253651
Bq         4.2004854289     1.8761435725     2.0411693319
Bq         4.4572740721     2.0184201628     1.0852315910
Bq         4.3288797505     1.9472818677     1.5632004615
Bq         4.2995098356     2.0320369027     1.6725347751
Bq         4.3508675643     2.0604922207     1.4813472269
Bq         4.2738309713     2.0178092437     1.7681285492
Bq         4.3765464286     2.0747198798     1.3857534528
Bq         4.2481521070     2.0035815846     1.8637223233
Bq         4.4022252929     2.0889475388     1.2901596787
Bq         4.2224732427     1.9893539256     1.9593160974
Bq         4.4279041572     2.1031751978     1.1945659047
Bq         4.1967943783     1.9751262666     2.0549098715
Bq         4.4535830216     2.1174028569     1.0989721306
Bq         4.3251886999     2.0462645617     1.5769410010
Bq         4.2958187851     2.1310195967     1.6862753147
Bq         4.3471765137     2.1594749148     1.4950877665
Bq         4.2701399208     2.1167919377     1.7818690888
Bq         4.3728553781     2.1737025738     1.3994939924
Bq         4.2444610564     2.1025642787     1.8774628629
Bq         4.3985342424     2.1879302328     1.3039002183
Bq         4.2187821921     2.0883366196     1.9730566370
Bq         4.4242131067     2.2021578919     1.2083064442
Bq         4.1931033278     2.0741089606     2.0686504111
Bq         4.4498919710     2.2163855509     1.1127126701
Bq         4.3214976494     2.1452472558     1.5906815406
Bq         4.5769475619    -2.8181151051     1.0251911185
Bq         4.6283052905    -2.7896597870     0.8340035703
Bq         4.5512686976    -2.8323427641     1.1207848926
Bq         4.6539841549    -2.7754321280     0.7384097962
Bq         4.5255898333    -2.8465704231     1.2163786667
Bq         4.6796630192    -2.7612044690     0.6428160222
Bq         4.4999109689    -2.8607980821     1.3119724408
Bq         4.7053418835    -2.7469768099     0.5472222481
Bq         4.4742321046    -2.8750257412     1.4075662149
Bq         4.7310207478    -2.7327491509     0.4516284740
Bq         4.6026264262    -2.8038874460     0.9295973444
Bq         4.5732565114    -2.7191324110     1.0389316581
Bq         4.6246142400    -2.6906770930     0.8477441099
Bq         4.5475776470    -2.7333600701     1.1345254322
Bq         4.6502931043    -2.6764494339     0.7521503358
Bq         4.5218987827    -2.7475877291     1.2301192063
Bq         4.6759719687    -2.6622217749     0.6565565617
Bq         4.4962199184    -2.7618153881     1.3257129804
Bq         4.7016508330    -2.6479941159     0.5609627876
Bq         4.4705410541    -2.7760430471     1.4213067545
Bq         4.7273296973    -2.6337664569     0.4653690135
Bq         4.5989353757    -2.7049047520     0.9433378840
Bq         4.5695654608    -2.6201497170     1.0526721976
Bq         4.6209231895    -2.5916943989     0.8614846495
Bq         4.5438865965    -2.6343773760     1.1482659717
Bq         4.6466020538    -2.5774667399     0.7658908754
Bq         4.5182077322    -2.6486050350     1.2438597458
Bq         4.6722809181    -2.5632390809     0.6702971013
Bq         4.4925288679    -2.6628326941     1.3394535199
Bq         4.6979597824    -2.5490114219     0.5747033272
Bq         4.4668500035    -2.6770603531     1.4350472940
Bq         4.7236386468    -2.5347837628     0.4791095531
Bq         4.5952443252    -2.6059220580     0.9570784236
Bq         4.5658744103    -2.5211670230     1.0664127372
Bq         4.6172321389    -2.4927117049     0.8752251890
Bq         4.5401955460    -2.5353946820     1.1620065113
Bq         4.6429110033    -2.4784840459     0.7796314149
Bq         4.5145166816    -2.5496223410     1.2576002854
Bq         4.6685898676    -2.4642563868     0.6840376408
Bq         4.4888378173    -2.5638500000     1.3531940595
Bq         4.6942687319    -2.4500287278     0.5884438667
Bq         4.4631589530    -2.5780776591     1.4487878336
Bq         4.7199475962    -2.4358010688     0.4928500926
Bq         4.5915532746    -2.5069393639     0.9708189631
Bq         4.5621833598    -2.4221843289     1.0801532768
Bq         4.6135410884    -2.3937290109     0.8889657286
Bq         4.5365044954    -2.4364119879     1.1757470509
Bq         4.6392199527    -2.3795013518     0.7933719545
Bq         4.5108256311    -2.4506396470     1.2713408250
Bq         4.6648988170    -2.3652736928     0.6977781804
Bq         4.4851467668    -2.4648673060     1.3669345991
Bq         4.6905776814    -2.3510460338     0.6021844063
Bq         4.4594679025    -2.4790949650     1.4625283731
Bq         4.7162565457    -2.3368183748     0.5065906322
Bq         4.5878622241    -2.4079566699     0.9845595027
Bq         4.5584923092    -2.3232016349     1.0938938163
Bq         4.6098500379    -2.2947463168     0.9027062681
Bq         4.5328134449    -2.3374292939     1.1894875904
Bq         4.6355289022    -2.2805186578     0.8071124940
Bq         4.5071345806    -2.3516569529     1.2850813645
Bq         4.6612077665    -2.2662909988     0.7115187199
Bq         4.4814557163    -2.3658846120     1.3806751386
Bq         4.6868866308    -2.2520633397     0.6159249459
Bq         4.4557768519    -2.3801122710     1.4762689127
Bq         4.7125654952    -2.2378356807     0.5203311718
Bq         4.5841711735    -2.3089739759     0.9983000422
Bq         4.5548012587    -2.2242189408     1.1076343559
Bq         4.6061589873    -2.1957636228     0.9164468077
Bq         4.5291223944    -2.2384465999     1.2032281300
Bq         4.6318378517    -2.1815359638     0.8208530336
Bq         4.5034435300    -2.2526742589     1.2988219041
Bq         4.6575167160    -2.1673083047     0.7252592595
Bq         4.4777646657    -2.2669019179     1.3944156782
Bq         4.6831955803    -2.1530806457     0.6296654854
Bq         4.4520858014    -2.2811295770     1.4900094523
Bq         4.7088744446    -2.1388529867     0.5340717113
Bq         4.5804801230    -2.2099912818     1.0120405818
Bq         4.5511102082    -2.1252362468     1.1213748954
Bq         4.6024679368    -2.0967809288     0.9301873473
Bq         4.5254313438    -2.1394639058     1.2169686695
Bq         4.6281468011    -2.0825532697     0.8345935732
Bq         4.4997524795    -2.1536915649     1.3125624436
Bq         4.6538256654    -2.0683256107     0.7389997991
Bq         4.4740736152    -2.1679192239     1.4081562177
Bq         4.6795045298    -2.0540979517     0.6434060250
Bq         4.4483947509    -2.1821468829     1.5037499918
Bq         4.7051833941    -2.0398702926     0.5478122509
Bq         4.5767890725    -2.1110085878     1.0257811213
Bq         4.5474191576    -2.0262535528     1.1351154350
Bq         4.5987768863    -1.9977982347     0.9439278868
Bq         4.5217402933    -2.0404812118     1.2307092091
Bq         4.6244557506    -1.9835705757     0.8483341127
Bq         4.4960614290    -2.0547088708     1.3263029832
Bq         4.6501346149    -1.9693429167     0.7527403386
Bq         4.4703825646    -2.0689365299     1.4218967573
Bq         4.6758134792    -1.9551152576     0.6571465645
Bq         4.4447037003    -2.0831641889     1.5174905314
Bq         4.7014923436    -1.9408875986     0.5615527904
Bq         4.5730980219    -2.0120258937     1.0395216609
Bq         4.5437281071    -1.9272708587     1.1488559746
Bq         4.5950858357    -1.8988155407     0.9576684264
Bq         4.5180492428    -1.9414985178     1.2444497487
Bq         4.6207647000    -1.8845878817     0.8620746523
Bq         4.4923703784    -1.9557261768     1.3400435228
Bq         4.6464435644    -1.8703602226     0.7664808782
Bq         4.4666915141    -1.9699538358     1.4356372968
Bq         4.6721224287    -1.8561325636     0.6708871041
Bq         4.4410126498    -1.9841814949     1.5312310709
Bq         4.6978012930    -1.8419049046     0.5752933300
Bq         4.5694069714    -1.9130431997     1.0532622005

1
2
3
4
5
6
7
8
9
10
11
12
13
14
15
16
17
18
19
20
21
22
23
24
25
26
27
28
29
30
31
32
33
34
35
36
37
38
39
40
41
42
43
44
45
46
47
48
49
50
51
52
53
54
55
56
57
58
59
60
61
62
63
64
65
66
67
68
69
70
71
72
73
74
75
76
77
78
79
80
81
82
83
84
85
86
87
88
89
90
91
92
93
94
95
96
97
98
99
100
101
102
103
104
105
106
107
108
109
110
111
112
113
114
115
116
117
118
119
120
121
122
123
124
125
126
127
128
129
130
131
132
133
134
135
136
137
138
139
140
141
142
143
144
145
146
147
148
149
150
151
152
153
154
155
156
157
158
159
160
161
162
163
164
165
166
167
168
169
170
171
172
173
174
175
176
177
178
179
180
181
182
183
184
185
186
187
188
189
190
191
192
193
194
195
196
197
198
199
200
201
202
203
204
205
206
207
208
209
210
211
212
213
214
215
216
217
218
219
220
221
222
223
224
225
226
227
228
229
230
231
232
233
234
235
236

