%nproc=8
%mem=1000MB
# rb3lyp/6-311+g** NMR geom=connectivity

Title

0 1
C    -4.0500558   -0.5771862    0.8136712
H    -5.0263804   -1.0082727    1.0024760
C    -3.9381552    0.6617804    0.2400876
H    -4.8252424    1.2338890   -0.0111295
C    -2.6768410    1.2433246    0.0057578
C    -1.4974121    0.5051527    0.2848253
C    -1.6508332   -0.7338728    0.9404026
H    -0.7713646   -1.2730967    1.2633753
C    -2.8898548   -1.2624035    1.1994307
H    -2.9683706   -2.2124563    1.7152676
C    -2.5773185    2.5963696   -0.4192930
H    -3.4870728    3.1412239   -0.6474055
C    -1.3741895    3.2147896   -0.4364030
H    -1.2997315    4.2742019   -0.6578144
C    -0.1719488    2.4994090   -0.1734588
C    -0.2043917    1.1018437    0.0192689
C     1.0513491    3.2042560   -0.0676222
H     1.0427344    4.2819499   -0.1896997
C     2.1942091    2.5487446    0.2579577
H     3.1168527    3.0912848    0.4334727
C     2.2216473    1.1336562    0.2934990
C     1.0486931    0.3945528    0.0302412
C     3.4483363    0.4614633    0.5573939
H     4.3095794    1.0606054    0.8334846
C     3.5427346   -0.8855926    0.4749463
H     4.4731467   -1.3939704    0.7038822
C     2.4490052   -1.6474447   -0.0196319
C     1.2150704   -1.0057258   -0.3013573
C     0.2531113   -1.7434440   -1.0216591
H    -0.6541356   -1.2535051   -1.3462847
C     0.4494193   -3.0628597   -1.3413779
H    -0.3083162   -3.5944309   -1.9054060
C     1.6251726   -3.7207967   -0.9552541
H     1.7670048   -4.7687404   -1.1927019
C     2.6109872   -3.0144177   -0.3183050
H     3.5525612   -3.4902813   -0.0646367
Bq         2.4425732709     1.9188265496     1.2614751557
Bq         2.5452887282     1.9757371857     0.8791000593
Bq         2.4168944066     1.9045988906     1.3570689298
Bq         2.5709675926     1.9899648448     0.7835062852
Bq         2.3912155423     1.8903712316     1.4526627039
Bq         2.5966464569     2.0041925038     0.6879125111
Bq         2.3655366780     1.8761435725     1.5482564780
Bq         2.6223253212     2.0184201628     0.5923187370
Bq         2.4939309996     1.9472818677     1.0702876075
Bq         2.4645610847     2.0320369027     1.1796219211
Bq         2.5159188134     2.0604922207     0.9884343729
Bq         2.4388822204     2.0178092437     1.2752156952
Bq         2.5415976777     2.0747198798     0.8928405989
Bq         2.4132033561     2.0035815846     1.3708094693
Bq         2.5672765420     2.0889475388     0.7972468248
Bq         2.3875244918     1.9893539256     1.4664032434
Bq         2.5929554063     2.1031751978     0.7016530507
Bq         2.3618456274     1.9751262666     1.5619970175
Bq         2.6186342707     2.1174028569     0.6060592766
Bq         2.4902399491     2.0462645617     1.0840281470
Bq         2.4608700342     2.1310195967     1.1933624607
Bq         2.5122277628     2.1594749148     1.0021749125
Bq         2.4351911699     2.1167919377     1.2889562348
Bq         2.5379066272     2.1737025738     0.9065811384
Bq         2.4095123056     2.1025642787     1.3845500089
Bq         2.5635854915     2.1879302328     0.8109873643
Bq         2.3838334412     2.0883366196     1.4801437830
Bq         2.5892643558     2.2021578919     0.7153935902
Bq         2.3581545769     2.0741089606     1.5757375571
Bq         2.6149432201     2.2163855509     0.6197998161
Bq         2.4865488985     2.1452472558     1.0977686866
Bq         2.7419988110    -2.8181151051     0.5322782645
Bq         2.7933565397    -2.7896597870     0.3410907164
Bq         2.7163199467    -2.8323427641     0.6278720386
Bq         2.8190354040    -2.7754321280     0.2454969423
Bq         2.6906410824    -2.8465704231     0.7234658127
Bq         2.8447142683    -2.7612044690     0.1499031682
Bq         2.6649622180    -2.8607980821     0.8190595868
Bq         2.8703931326    -2.7469768099     0.0543093941
Bq         2.6392833537    -2.8750257412     0.9146533609
Bq         2.8960719970    -2.7327491509    -0.0412843800
Bq         2.7676776753    -2.8038874460     0.4366844904
Bq         2.7383077605    -2.7191324110     0.5460188041
Bq         2.7896654891    -2.6906770930     0.3548312559
Bq         2.7126288962    -2.7333600701     0.6416125782
Bq         2.8153443534    -2.6764494339     0.2592374818
Bq         2.6869500318    -2.7475877291     0.7372063523
Bq         2.8410232178    -2.6622217749     0.1636437077
Bq         2.6612711675    -2.7618153881     0.8328001264
Bq         2.8667020821    -2.6479941159     0.0680499336
Bq         2.6355923032    -2.7760430471     0.9283939005
Bq         2.8923809464    -2.6337664569    -0.0275438405
Bq         2.7639866248    -2.7049047520     0.4504250300
Bq         2.7346167099    -2.6201497170     0.5597593437
Bq         2.7859744386    -2.5916943989     0.3685717955
Bq         2.7089378456    -2.6343773760     0.6553531178
Bq         2.8116533029    -2.5774667399     0.2729780214
Bq         2.6832589813    -2.6486050350     0.7509468918
Bq         2.8373321672    -2.5632390809     0.1773842473
Bq         2.6575801170    -2.6628326941     0.8465406659
Bq         2.8630110316    -2.5490114219     0.0817904732
Bq         2.6319012527    -2.6770603531     0.9421344400
Bq         2.8886898959    -2.5347837628    -0.0138033009
Bq         2.7602955743    -2.6059220580     0.4641655696
Bq         2.7309256594    -2.5211670230     0.5734998832
Bq         2.7822833881    -2.4927117049     0.3823123350
Bq         2.7052467951    -2.5353946820     0.6690936573
Bq         2.8079622524    -2.4784840459     0.2867185609
Bq         2.6795679308    -2.5496223410     0.7646874314
Bq         2.8336411167    -2.4642563868     0.1911247868
Bq         2.6538890664    -2.5638500000     0.8602812055
Bq         2.8593199810    -2.4500287278     0.0955310127
Bq         2.6282102021    -2.5780776591     0.9558749796
Bq         2.8849988453    -2.4358010688    -0.0000627614
Bq         2.7566045237    -2.5069393639     0.4779061091
Bq         2.7272346089    -2.4221843289     0.5872404228
Bq         2.7785923375    -2.3937290109     0.3960528746
Bq         2.7015557446    -2.4364119879     0.6828341969
Bq         2.8042712018    -2.3795013518     0.3004591005
Bq         2.6758768802    -2.4506396470     0.7784279710
Bq         2.8299500662    -2.3652736928     0.2048653264
Bq         2.6501980159    -2.4648673060     0.8740217451
Bq         2.8556289305    -2.3510460338     0.1092715523
Bq         2.6245191516    -2.4790949650     0.9696155192
Bq         2.8813077948    -2.3368183748     0.0136777782
Bq         2.7529134732    -2.4079566699     0.4916466487
Bq         2.7235435583    -2.3232016349     0.6009809623
Bq         2.7749012870    -2.2947463168     0.4097934141
Bq         2.6978646940    -2.3374292939     0.6965747364
Bq         2.8005801513    -2.2805186578     0.3141996401
Bq         2.6721858297    -2.3516569529     0.7921685105
Bq         2.8262590156    -2.2662909988     0.2186058660
Bq         2.6465069654    -2.3658846120     0.8877622846
Bq         2.8519378800    -2.2520633397     0.1230120919
Bq         2.6208281010    -2.3801122710     0.9833560587
Bq         2.8776167443    -2.2378356807     0.0274183178
Bq         2.7492224227    -2.3089739759     0.5053871882
Bq         2.7198525078    -2.2242189408     0.6147215019
Bq         2.7712102364    -2.1957636228     0.4235339537
Bq         2.6941736435    -2.2384465999     0.7103152760
Bq         2.7968891008    -2.1815359638     0.3279401796
Bq         2.6684947792    -2.2526742589     0.8059090501
Bq         2.8225679651    -2.1673083047     0.2323464055
Bq         2.6428159148    -2.2669019179     0.9015028242
Bq         2.8482468294    -2.1530806457     0.1367526314
Bq         2.6171370505    -2.2811295770     0.9970965983
Bq         2.8739256937    -2.1388529867     0.0411588573
Bq         2.7455313721    -2.2099912818     0.5191277278
Bq         2.7161614573    -2.1252362468     0.6284620415
Bq         2.7675191859    -2.0967809288     0.4372744933
Bq         2.6904825929    -2.1394639058     0.7240558155
Bq         2.7931980502    -2.0825532697     0.3416807192
Bq         2.6648037286    -2.1536915649     0.8196495896
Bq         2.8188769146    -2.0683256107     0.2460869451
Bq         2.6391248643    -2.1679192239     0.9152433637
Bq         2.8445557789    -2.0540979517     0.1504931710
Bq         2.6134460000    -2.1821468829     1.0108371378
Bq         2.8702346432    -2.0398702926     0.0548993969
Bq         2.7418403216    -2.1110085878     0.5328682674
Bq         2.7124704067    -2.0262535528     0.6422025810
Bq         2.7638281354    -1.9977982347     0.4510150328
Bq         2.6867915424    -2.0404812118     0.7377963551
Bq         2.7895069997    -1.9835705757     0.3554212587
Bq         2.6611126781    -2.0547088708     0.8333901292
Bq         2.8151858640    -1.9693429167     0.2598274846
Bq         2.6354338138    -2.0689365299     0.9289839033
Bq         2.8408647283    -1.9551152576     0.1642337105
Bq         2.6097549494    -2.0831641889     1.0245776774
Bq         2.8665435927    -1.9408875986     0.0686399364
Bq         2.7381492711    -2.0120258937     0.5466088069
Bq         2.7087793562    -1.9272708587     0.6559431206
Bq         2.7601370848    -1.8988155407     0.4647555724
Bq         2.6831004919    -1.9414985178     0.7515368947
Bq         2.7858159492    -1.8845878817     0.3691617983
Bq         2.6574216276    -1.9557261768     0.8471306688
Bq         2.8114948135    -1.8703602226     0.2735680242
Bq         2.6317427632    -1.9699538358     0.9427244429
Bq         2.8371736778    -1.8561325636     0.1779742501
Bq         2.6060638989    -1.9841814949     1.0383182170
Bq         2.8628525421    -1.8419049046     0.0823804760
Bq         2.7344582205    -1.9130431997     0.5603493465
Bq         2.7050883057    -1.8282881647     0.6696836601
Bq         2.7564460343    -1.7998328466     0.4784961119
Bq         2.6794094413    -1.8425158237     0.7652774342
Bq         2.7821248986    -1.7856051876     0.3829023378
Bq         2.6537305770    -1.8567434828     0.8608712083
Bq         2.8078037630    -1.7713775286     0.2873085638
Bq         2.6280517127    -1.8709711418     0.9564649824
Bq         2.8334826273    -1.7571498696     0.1917147897
Bq         2.6023728484    -1.8851988008     1.0520587565
Bq         2.8591614916    -1.7429222105     0.0961210156
Bq         2.7307671700    -1.8140605057     0.5740898860
Bq         2.7013972551    -1.7293054707     0.6834241997
Bq         2.7527549838    -1.7008501526     0.4922366515
Bq         2.6757183908    -1.7435331297     0.7790179738
Bq         2.7784338481    -1.6866224936     0.3966428774
Bq         2.6500395265    -1.7577607887     0.8746117479
Bq         2.8041127124    -1.6723948346     0.3010491033
Bq         2.6243606622    -1.7719884478     0.9702055220
Bq         2.8297915767    -1.6581671755     0.2054553292
Bq         2.5986817978    -1.7862161068     1.0657992961
Bq         2.8554704411    -1.6439395165     0.1098615551
Bq         2.7270761194    -1.7150778116     0.5878304256
Bq         2.6977062046    -1.6303227766     0.6971647392
Bq         2.7490639332    -1.6018674586     0.5059771911
Bq         2.6720273403    -1.6445504357     0.7927585133
Bq         2.7747427976    -1.5876397995     0.4103834170
Bq         2.6463484759    -1.6587780947     0.8883522874
Bq         2.8004216619    -1.5734121405     0.3147896429
Bq         2.6206696116    -1.6730057537     0.9839460615
Bq         2.8261005262    -1.5591844815     0.2191958688
Bq         2.5949907473    -1.6872334127     1.0795398356
Bq         2.8517793905    -1.5449568225     0.1236020947
Bq         2.7233850689    -1.6160951176     0.6015709652
Bq         2.6940151541    -1.5313400826     0.7109052788
Bq         2.7453728827    -1.5028847645     0.5197177306
Bq         2.6683362897    -1.5455677416     0.8064990529
Bq         2.7710517470    -1.4886571055     0.4241239565
Bq         2.6426574254    -1.5597954007     0.9020928270
Bq         2.7967306113    -1.4744294465     0.3285301824
Bq         2.6169785611    -1.5740230597     0.9976866011
Bq         2.8224094757    -1.4602017875     0.2329364083
Bq         2.5912996968    -1.5882507187     1.0932803752
Bq         2.8480883400    -1.4459741284     0.1373426342
Bq         2.7196940184    -1.5171124236     0.6153115047
Bq         2.6903241035    -1.4323573886     0.7246458184
Bq         2.7416818322    -1.4039020705     0.5334582702
Bq         2.6646452392    -1.4465850476     0.8202395925
Bq         2.7673606965    -1.3896744115     0.4378644961
Bq         2.6389663749    -1.4608127066     0.9158333666
Bq         2.7930395608    -1.3754467524     0.3422707220
Bq         2.6132875106    -1.4750403656     1.0114271406
Bq         2.8187184251    -1.3612190934     0.2466769479
Bq         2.5876086462    -1.4892680247     1.1070209147
Bq         2.8443972895    -1.3469914344     0.1510831738
Bq         2.7160029678    -1.4181297295     0.6290520443
Bq         2.6866330530    -1.3333746945     0.7383863579
Bq         2.7379907816    -1.3049193765     0.5471988097
Bq         2.6609541887    -1.3476023536     0.8339801320
Bq         2.7636696460    -1.2906917174     0.4516050356

1
2
3
4
5
6
7
8
9
10
11
12
13
14
15
16
17
18
19
20
21
22
23
24
25
26
27
28
29
30
31
32
33
34
35
36
37
38
39
40
41
42
43
44
45
46
47
48
49
50
51
52
53
54
55
56
57
58
59
60
61
62
63
64
65
66
67
68
69
70
71
72
73
74
75
76
77
78
79
80
81
82
83
84
85
86
87
88
89
90
91
92
93
94
95
96
97
98
99
100
101
102
103
104
105
106
107
108
109
110
111
112
113
114
115
116
117
118
119
120
121
122
123
124
125
126
127
128
129
130
131
132
133
134
135
136
137
138
139
140
141
142
143
144
145
146
147
148
149
150
151
152
153
154
155
156
157
158
159
160
161
162
163
164
165
166
167
168
169
170
171
172
173
174
175
176
177
178
179
180
181
182
183
184
185
186
187
188
189
190
191
192
193
194
195
196
197
198
199
200
201
202
203
204
205
206
207
208
209
210
211
212
213
214
215
216
217
218
219
220
221
222
223
224
225
226
227
228
229
230
231
232
233
234
235
236

