%nproc=8
%mem=1000MB
# rb3lyp/6-311+g** NMR geom=connectivity

Title

0 1
C    -4.0500558   -0.5771862    0.8136712
H    -5.0263804   -1.0082727    1.0024760
C    -3.9381552    0.6617804    0.2400876
H    -4.8252424    1.2338890   -0.0111295
C    -2.6768410    1.2433246    0.0057578
C    -1.4974121    0.5051527    0.2848253
C    -1.6508332   -0.7338728    0.9404026
H    -0.7713646   -1.2730967    1.2633753
C    -2.8898548   -1.2624035    1.1994307
H    -2.9683706   -2.2124563    1.7152676
C    -2.5773185    2.5963696   -0.4192930
H    -3.4870728    3.1412239   -0.6474055
C    -1.3741895    3.2147896   -0.4364030
H    -1.2997315    4.2742019   -0.6578144
C    -0.1719488    2.4994090   -0.1734588
C    -0.2043917    1.1018437    0.0192689
C     1.0513491    3.2042560   -0.0676222
H     1.0427344    4.2819499   -0.1896997
C     2.1942091    2.5487446    0.2579577
H     3.1168527    3.0912848    0.4334727
C     2.2216473    1.1336562    0.2934990
C     1.0486931    0.3945528    0.0302412
C     3.4483363    0.4614633    0.5573939
H     4.3095794    1.0606054    0.8334846
C     3.5427346   -0.8855926    0.4749463
H     4.4731467   -1.3939704    0.7038822
C     2.4490052   -1.6474447   -0.0196319
C     1.2150704   -1.0057258   -0.3013573
C     0.2531113   -1.7434440   -1.0216591
H    -0.6541356   -1.2535051   -1.3462847
C     0.4494193   -3.0628597   -1.3413779
H    -0.3083162   -3.5944309   -1.9054060
C     1.6251726   -3.7207967   -0.9552541
H     1.7670048   -4.7687404   -1.1927019
C     2.6109872   -3.0144177   -0.3183050
H     3.5525612   -3.4902813   -0.0646367
Bq         3.5555023246     0.0808383400     0.9730513997
Bq         3.4784657316     0.0381553629     1.2598327219
Bq         3.5811811889     0.0950659991     0.8774576256
Bq         3.4527868673     0.0239277039     1.3554264960
Bq         3.6068600532     0.1092936581     0.7818638515
Bq         3.4271080029     0.0097000449     1.4510202701
Bq         3.6325389175     0.1235213171     0.6862700774
Bq         3.4014291386    -0.0045276141     1.5466140442
Bq         3.6582177818     0.1377489761     0.5906763033
Bq         3.5298234602     0.0666106810     1.0686451738
Bq         3.5004535454     0.1513657160     1.1779794874
Bq         3.5518112740     0.1798210341     0.9867919392
Bq         3.4747746810     0.1371380570     1.2735732615
Bq         3.5774901383     0.1940486931     0.8911981651
Bq         3.4490958167     0.1229103980     1.3691670356
Bq         3.6031690027     0.2082763521     0.7956043910
Bq         3.4234169524     0.1086827389     1.4647608097
Bq         3.6288478670     0.2225040112     0.7000106169
Bq         3.3977380881     0.0944550799     1.5603545838
Bq         3.6545267313     0.2367316702     0.6044168428
Bq         3.5261324097     0.1655933750     1.0823857133
Bq         3.4967624948     0.2503484100     1.1917200270
Bq         3.5481202235     0.2788037281     1.0005324788
Bq         3.4710836305     0.2361207510     1.2873138011
Bq         3.5737990878     0.2930313871     0.9049387047
Bq         3.4454047662     0.2218930920     1.3829075752
Bq         3.5994779521     0.3072590462     0.8093449306
Bq         3.4197259019     0.2076654330     1.4785013493
Bq         3.6251568164     0.3214867052     0.7137511565
Bq         3.3940470375     0.1934377739     1.5740951233
Bq         3.6508356808     0.3357143642     0.6181573824
Bq         3.5224413592     0.2645760691     1.0961262529
Bq         3.4930714443     0.3493311041     1.2054605665
Bq         3.5444291729     0.3777864221     1.0142730183
Bq         3.4673925800     0.3351034451     1.3010543406
Bq         3.5701080373     0.3920140812     0.9186792442
Bq         3.4417137157     0.3208757860     1.3966481147
Bq         3.5957869016     0.4062417402     0.8230854701
Bq         3.4160348513     0.3066481270     1.4922418888
Bq         3.6214657659     0.4204693992     0.7274916961
Bq         3.3903559870     0.2924204680     1.5878356629
Bq         3.6471446302     0.4346970583     0.6318979220
Bq         3.5187503086     0.3635587631     1.1098667924
Bq         3.4893803938     0.4483137981     1.2192011061
Bq         3.5407381224     0.4767691162     1.0280135579
Bq         3.4637015294     0.4340861391     1.3147948802
Bq         3.5664169867     0.4909967752     0.9324197838
Bq         3.4380226651     0.4198584801     1.4103886543
Bq         3.5920958511     0.5052244342     0.8368260097
Bq         3.4123438008     0.4056308210     1.5059824284
Bq         3.6177747154     0.5194520933     0.7412322356
Bq         3.3866649365     0.3914031620     1.6015762025
Bq         3.6434535797     0.5336797523     0.6456384615
Bq         3.5150592581     0.4625414571     1.1236073320
Bq         3.4856893432     0.5472964922     1.2329416456
Bq         3.5370470719     0.5757518102     1.0417540975
Bq         3.4600104789     0.5330688331     1.3285354197
Bq         3.5627259362     0.5899794692     0.9461603234
Bq         3.4343316146     0.5188411741     1.4241291938
Bq         3.5884048005     0.6042071283     0.8505665493
Bq         3.4086527503     0.5046135151     1.5197229679
Bq         3.6140836648     0.6184347873     0.7549727752
Bq         3.3829738859     0.4903858560     1.6153167420
Bq         3.6397625292     0.6326624463     0.6593790011
Bq         3.5113682076     0.5615241512     1.1373478715
Bq         3.4819982927     0.6462791862     1.2466821852
Bq         3.5333560213     0.6747345042     1.0554946370
Bq         3.4563194284     0.6320515272     1.3422759593
Bq         3.5590348857     0.6889621633     0.9599008629
Bq         3.4306405641     0.6178238681     1.4378697334
Bq         3.5847137500     0.7031898223     0.8643070888
Bq         3.4049616997     0.6035962091     1.5334635075
Bq         3.6103926143     0.7174174813     0.7687133147
Bq         3.3792828354     0.5893685501     1.6290572816
Bq         3.6360714786     0.7316451404     0.6731195406
Bq         3.5076771570     0.6605068452     1.1510884111
Bq         3.4783072422     0.7452618802     1.2604227248
Bq         3.5296649708     0.7737171983     1.0692351766
Bq         3.4526283778     0.7310342212     1.3560164989
Bq         3.5553438351     0.7879448573     0.9736414025
Bq         3.4269495135     0.7168065622     1.4516102730
Bq         3.5810226995     0.8021725163     0.8780476284
Bq         3.4012706492     0.7025789031     1.5472040470
Bq         3.6067015638     0.8164001754     0.7824538543
Bq         3.3755917849     0.6883512441     1.6427978211
Bq         3.6323804281     0.8306278344     0.6868600802
Bq         3.5039861065     0.7594895393     1.1648289507
Bq         3.4746161916     0.8442445743     1.2741632643
Bq         3.5259739203     0.8726998923     1.0829757161
Bq         3.4489373273     0.8300169152     1.3697570384
Bq         3.5516527846     0.8869275513     0.9873819420
Bq         3.4232584630     0.8157892562     1.4653508125
Bq         3.5773316489     0.9011552104     0.8917881679
Bq         3.3975795987     0.8015615972     1.5609445866
Bq         3.6030105132     0.9153828694     0.7961943938
Bq         3.3719007343     0.7873339381     1.6565383607
Bq         3.6286893776     0.9296105284     0.7006006198
Bq         3.5002950559     0.8584722333     1.1785694902
Bq         3.4709251411     0.9432272683     1.2879038039
Bq         3.5222828697     0.9716825864     1.0967162557
Bq         3.4452462768     0.9289996093     1.3834975780
Bq         3.5479617341     0.9859102454     1.0011224816
Bq         3.4195674124     0.9147719502     1.4790913521
Bq         3.5736405984     1.0001379044     0.9055287075
Bq         3.3938885481     0.9005442912     1.5746851262
Bq         3.5993194627     1.0143655634     0.8099349334
Bq         3.3682096838     0.8863166322     1.6702789003
Bq         3.6249983270     1.0285932225     0.7143411593
Bq         3.4966040054     0.9574549273     1.1923100298
Bq         3.4672340906     1.0422099623     1.3016443434
Bq         3.5185918192     1.0706652804     1.1104567952
Bq         3.4415552262     1.0279823033     1.3972381175
Bq         3.5442706835     1.0848929394     1.0148630212
Bq         3.4158763619     1.0137546443     1.4928318916
Bq         3.5699495478     1.0991205984     0.9192692471
Bq         3.3901974976     0.9995269852     1.5884256657
Bq         3.5956284122     1.1133482575     0.8236754730
Bq         3.3645186333     0.9852993262     1.6840194398
Bq         3.6213072765     1.1275759165     0.7280816989
Bq         3.4929129549     1.0564376214     1.2060505693
Bq         3.4635430400     1.1411926564     1.3153848830
Bq         3.5149007687     1.1696479744     1.1241973348
Bq         3.4378641757     1.1269649973     1.4109786571
Bq         3.5405796330     1.1838756335     1.0286035607
Bq         3.4121853114     1.1127373383     1.5065724312
Bq         3.5662584973     1.1981032925     0.9330097866
Bq         3.3865064471     1.0985096793     1.6021662053
Bq         3.5919373616     1.2123309515     0.8374160125
Bq         3.3608275827     1.0842820203     1.6977599794
Bq         3.6176162260     1.2265586105     0.7418222384
Bq         3.4892219043     1.1554203154     1.2197911089
Bq         3.4598519895     1.2401753504     1.3291254226
Bq         3.5112097181     1.2686306685     1.1379378744
Bq         3.4341731252     1.2259476914     1.4247191967
Bq         3.5368885825     1.2828583275     1.0423441003
Bq         3.4084942608     1.2117200323     1.5203129707
Bq         3.5625674468     1.2970859865     0.9467503262
Bq         3.3828153965     1.1974923733     1.6159067448
Bq         3.5882463111     1.3113136455     0.8511565521
Bq         3.3571365322     1.1832647143     1.7115005189
Bq         3.6139251754     1.3255413046     0.7555627780
Bq         3.4855308538     1.2544030094     1.2335316485
Bq         3.4561609389     1.3391580444     1.3428659621
Bq         3.5075186676     1.3676133625     1.1516784139
Bq         3.4304820746     1.3249303854     1.4384597362
Bq         3.5331975319     1.3818410215     1.0560846398
Bq         3.4048032103     1.3107027264     1.5340535103
Bq         3.5588763962     1.3960686806     0.9604908657
Bq         3.3791243460     1.2964750674     1.6296472844
Bq         3.5845552606     1.4102963396     0.8648970916
Bq         3.3534454817     1.2822474083     1.7252410585
Bq         3.6102341249     1.4245239986     0.7693033175
Bq         3.4818398033     1.3533857035     1.2472721880
Bq         3.4524698884     1.4381407385     1.3566065017
Bq         3.5038276171     1.4665960565     1.1654189535
Bq         3.4267910241     1.4239130794     1.4522002758
Bq         3.5295064814     1.4808237156     1.0698251794
Bq         3.4011121598     1.4096854204     1.5477940499
Bq         3.5551853457     1.4950513746     0.9742314053
Bq         3.3754332954     1.3954577614     1.6433878240
Bq         3.5808642100     1.5092790336     0.8786376312
Bq         3.3497544311     1.3812301024     1.7389815981
Bq         3.6065430743     1.5235066926     0.7830438571
Bq         3.4781487527     1.4523683975     1.2610127276
Bq         3.4487788379     1.5371234325     1.3703470412
Bq         3.5001365665     1.5655787506     1.1791594930
Bq         3.4230999736     1.5228957735     1.4659408153
Bq         3.5258154308     1.5798064096     1.0835657189
Bq         3.3974211092     1.5086681145     1.5615345894
Bq         3.5514942952     1.5940340686     0.9879719449
Bq         3.3717422449     1.4944404554     1.6571283635
Bq         3.5771731595     1.6082617277     0.8923781708
Bq         3.3460633806     1.4802127964     1.7527221376
Bq         3.6028520238     1.6224893867     0.7967843967
Bq         3.4744577022     1.5513510915     1.2747532671
Bq         3.4450877873     1.6361061265     1.3840875808
Bq         3.4964455160     1.6645614446     1.1929000326
Bq         3.4194089230     1.6218784675     1.4796813549
Bq         3.5221243803     1.6787891036     1.0973062585
Bq         3.3937300587     1.6076508085     1.5752751290
Bq         3.5478032446     1.6930167627     1.0017124844
Bq         3.3680511944     1.5934231495     1.6708689031
Bq         3.5734821090     1.7072444217     0.9061187103
Bq         3.3423723301     1.5791954904     1.7664626772
Bq         3.5991609733     1.7214720807     0.8105249362
Bq         3.4707666517     1.6503337856     1.2884938067
Bq         3.4413967368     1.7350888206     1.3978281204
Bq         3.4927544655     1.7635441386     1.2066405722
Bq         3.4157178725     1.7208611616     1.4934218944
Bq         3.5184333298     1.7777717977     1.1110467981
Bq         3.3900390082     1.7066335025     1.5890156685
Bq         3.5441121941     1.7919994567     1.0154530240
Bq         3.3643601438     1.6924058435     1.6846094426
Bq         3.5697910584     1.8062271157     0.9198592499
Bq         3.3386812795     1.6781781845     1.7802032167
Bq         3.5954699227     1.8204547748     0.8242654758
Bq         3.4670756011     1.7493164796     1.3022343463
Bq         3.4377056863     1.8340715146     1.4115686599
Bq         3.4890634149     1.8625268327     1.2203811117
Bq         3.4120268219     1.8198438556     1.5071624340

1
2
3
4
5
6
7
8
9
10
11
12
13
14
15
16
17
18
19
20
21
22
23
24
25
26
27
28
29
30
31
32
33
34
35
36
37
38
39
40
41
42
43
44
45
46
47
48
49
50
51
52
53
54
55
56
57
58
59
60
61
62
63
64
65
66
67
68
69
70
71
72
73
74
75
76
77
78
79
80
81
82
83
84
85
86
87
88
89
90
91
92
93
94
95
96
97
98
99
100
101
102
103
104
105
106
107
108
109
110
111
112
113
114
115
116
117
118
119
120
121
122
123
124
125
126
127
128
129
130
131
132
133
134
135
136
137
138
139
140
141
142
143
144
145
146
147
148
149
150
151
152
153
154
155
156
157
158
159
160
161
162
163
164
165
166
167
168
169
170
171
172
173
174
175
176
177
178
179
180
181
182
183
184
185
186
187
188
189
190
191
192
193
194
195
196
197
198
199
200
201
202
203
204
205
206
207
208
209
210
211
212
213
214
215
216
217
218
219
220
221
222
223
224
225
226
227
228
229
230
231
232
233
234
235
236

