%nproc=8
%mem=1000MB
# rb3lyp/6-311+g** NMR geom=connectivity

Title

0 1
C    -4.0500558   -0.5771862    0.8136712
H    -5.0263804   -1.0082727    1.0024760
C    -3.9381552    0.6617804    0.2400876
H    -4.8252424    1.2338890   -0.0111295
C    -2.6768410    1.2433246    0.0057578
C    -1.4974121    0.5051527    0.2848253
C    -1.6508332   -0.7338728    0.9404026
H    -0.7713646   -1.2730967    1.2633753
C    -2.8898548   -1.2624035    1.1994307
H    -2.9683706   -2.2124563    1.7152676
C    -2.5773185    2.5963696   -0.4192930
H    -3.4870728    3.1412239   -0.6474055
C    -1.3741895    3.2147896   -0.4364030
H    -1.2997315    4.2742019   -0.6578144
C    -0.1719488    2.4994090   -0.1734588
C    -0.2043917    1.1018437    0.0192689
C     1.0513491    3.2042560   -0.0676222
H     1.0427344    4.2819499   -0.1896997
C     2.1942091    2.5487446    0.2579577
H     3.1168527    3.0912848    0.4334727
C     2.2216473    1.1336562    0.2934990
C     1.0486931    0.3945528    0.0302412
C     3.4483363    0.4614633    0.5573939
H     4.3095794    1.0606054    0.8334846
C     3.5427346   -0.8855926    0.4749463
H     4.4731467   -1.3939704    0.7038822
C     2.4490052   -1.6474447   -0.0196319
C     1.2150704   -1.0057258   -0.3013573
C     0.2531113   -1.7434440   -1.0216591
H    -0.6541356   -1.2535051   -1.3462847
C     0.4494193   -3.0628597   -1.3413779
H    -0.3083162   -3.5944309   -1.9054060
C     1.6251726   -3.7207967   -0.9552541
H     1.7670048   -4.7687404   -1.1927019
C     2.6109872   -3.0144177   -0.3183050
H     3.5525612   -3.4902813   -0.0646367
Bq        -1.0657154755     4.3205510713    -0.1682725605
Bq        -1.1670471468     4.3549454668     0.5234997416
Bq        -1.0512395225     4.3156375862    -0.2670971751
Bq        -1.1815230999     4.3598589519     0.6223243562
Bq        -1.0367635694     4.3107241011    -0.3659217897
Bq        -1.1091433346     4.3352915265     0.1282012832
Bq        -1.0602818609    -0.6537557573     0.4845995951
Bq        -1.0313299548    -0.6635827274     0.2869503659
Bq        -1.0747578139    -0.6488422722     0.5834242096
Bq        -1.0168540018    -0.6684962125     0.1881257513
Bq        -1.0892337670    -0.6439287871     0.6822488242
Bq        -1.0023780487    -0.6734096976     0.0893011367
Bq        -1.1037097200    -0.6390153020     0.7810734388
Bq        -0.9879020957    -0.6783231827    -0.0095234779
Bq        -1.1181856731    -0.6341018169     0.8798980534
Bq        -0.9734261426    -0.6832366678    -0.1083480925
Bq        -1.0458059079    -0.6586692423     0.3857749805
Bq        -1.0595697270    -0.5538765419     0.4797379903
Bq        -1.0306178209    -0.5637035121     0.2820887611
Bq        -1.0740456800    -0.5489630568     0.5785626049
Bq        -1.0161418678    -0.5686169971     0.1832641465
Bq        -1.0885216331    -0.5440495717     0.6773872195
Bq        -1.0016659148    -0.5735304822     0.0844395320
Bq        -1.1029975861    -0.5391360866     0.7762118340
Bq        -0.9871899617    -0.5784439673    -0.0143850826
Bq        -1.1174735391    -0.5342226016     0.8750364486
Bq        -0.9727140087    -0.5833574524    -0.1132096972
Bq        -1.0450937739    -0.5587900270     0.3809133757
Bq        -1.0588575930    -0.4539973265     0.4748763855
Bq        -1.0299056869    -0.4638242967     0.2772271564
Bq        -1.0733335461    -0.4490838414     0.5737010001
Bq        -1.0154297339    -0.4687377818     0.1784025418
Bq        -1.0878094991    -0.4441703563     0.6725256147
Bq        -1.0009537808    -0.4736512668     0.0795779272
Bq        -1.1022854522    -0.4392568713     0.7713502293
Bq        -0.9864778278    -0.4785647519    -0.0192466874
Bq        -1.1167614052    -0.4343433862     0.8701748439
Bq        -0.9720018748    -0.4834782370    -0.1180713020
Bq        -1.0443816400    -0.4589108116     0.3760517709
Bq        -1.0581454591    -0.3541181111     0.4700147808
Bq        -1.0291935530    -0.3639450813     0.2723655516
Bq        -1.0726214121    -0.3492046261     0.5688393953
Bq        -1.0147175999    -0.3688585664     0.1735409370
Bq        -1.0870973652    -0.3442911410     0.6676640099
Bq        -1.0002416469    -0.3737720515     0.0747163224
Bq        -1.1015733182    -0.3393776559     0.7664886245
Bq        -0.9857656939    -0.3786855365    -0.0241082922
Bq        -1.1160492713    -0.3344641708     0.8653132391
Bq        -0.9712897408    -0.3835990216    -0.1229329068
Bq        -1.0436695060    -0.3590315962     0.3711901662
Bq        -1.0574333251    -0.2542388958     0.4651531760
Bq        -1.0284814191    -0.2640658659     0.2675039468
Bq        -1.0719092782    -0.2493254107     0.5639777906
Bq        -1.0140054660    -0.2689793510     0.1686793322
Bq        -1.0863852312    -0.2444119256     0.6628024052
Bq        -0.9995295130    -0.2738928361     0.0698547177
Bq        -1.1008611843    -0.2394984405     0.7616270197
Bq        -0.9850535599    -0.2788063212    -0.0289698969
Bq        -1.1153371373    -0.2345849554     0.8604516343
Bq        -0.9705776069    -0.2837198063    -0.1277945115
Bq        -1.0429573721    -0.2591523808     0.3663285614
Bq        -1.0567211912    -0.1543596804     0.4602915712
Bq        -1.0277692851    -0.1641866505     0.2626423421
Bq        -1.0711971442    -0.1494461953     0.5591161858
Bq        -1.0132933321    -0.1691001356     0.1638177275
Bq        -1.0856730973    -0.1445327102     0.6579408004
Bq        -0.9988173790    -0.1740136207     0.0649931129
Bq        -1.1001490503    -0.1396192251     0.7567654150
Bq        -0.9843414260    -0.1789271058    -0.0338315017
Bq        -1.1146250034    -0.1347057400     0.8555900296
Bq        -0.9698654729    -0.1838405909    -0.1326561163
Bq        -1.0422452382    -0.1592731655     0.3614669566
Bq        -1.0560090573    -0.0544804650     0.4554299665
Bq        -1.0270571512    -0.0643074352     0.2577807373
Bq        -1.0704850103    -0.0495669799     0.5542545810
Bq        -1.0125811981    -0.0692209203     0.1589561227
Bq        -1.0849609633    -0.0446534948     0.6530791956
Bq        -0.9981052451    -0.0741344053     0.0601315081
Bq        -1.0994369164    -0.0397400098     0.7519038102
Bq        -0.9836292920    -0.0790478904    -0.0386931065
Bq        -1.1139128694    -0.0348265247     0.8507284248
Bq        -0.9691533390    -0.0839613755    -0.1375177210
Bq        -1.0415331042    -0.0593939501     0.3566053519
Bq        -1.0552969233     0.0453987504     0.4505683617
Bq        -1.0263450172     0.0355717802     0.2529191325
Bq        -1.0697728764     0.0503122355     0.5493929763
Bq        -1.0118690642     0.0306582951     0.1540945179
Bq        -1.0842488294     0.0552257205     0.6482175909
Bq        -0.9973931111     0.0257448100     0.0552699034
Bq        -1.0987247824     0.0601392056     0.7470422054
Bq        -0.9829171581     0.0208313250    -0.0435547112
Bq        -1.1132007355     0.0650526907     0.8458668200
Bq        -0.9684412050     0.0159178399    -0.1423793258
Bq        -1.0408209703     0.0404852653     0.3517437471
Bq        -1.0545847894     0.1452779658     0.4457067569
Bq        -1.0256328833     0.1354509956     0.2480575278
Bq        -1.0690607424     0.1501914508     0.5445313715
Bq        -1.0111569302     0.1305375105     0.1492329132
Bq        -1.0835366955     0.1551049359     0.6433559861
Bq        -0.9966809772     0.1256240254     0.0504082986
Bq        -1.0980126485     0.1600184210     0.7421806007
Bq        -0.9822050242     0.1207105403    -0.0484163160
Bq        -1.1124886015     0.1649319061     0.8410052153
Bq        -0.9677290711     0.1157970553    -0.1472409306
Bq        -1.0401088363     0.1403644807     0.3468821423
Bq        -1.0538726554     0.2451571811     0.4408451522
Bq        -1.0249207493     0.2353302110     0.2431959230
Bq        -1.0683486085     0.2500706662     0.5396697667
Bq        -1.0104447963     0.2304167259     0.1443713084
Bq        -1.0828245615     0.2549841513     0.6384943813
Bq        -0.9959688433     0.2255032408     0.0455466938
Bq        -1.0973005146     0.2598976364     0.7373189959
Bq        -0.9814928902     0.2205897557    -0.0532779208
Bq        -1.1117764676     0.2648111215     0.8361436105
Bq        -0.9670169372     0.2156762706    -0.1521025353
Bq        -1.0393967024     0.2402436960     0.3420205376
Bq        -1.0531605215     0.3450363965     0.4359835474
Bq        -1.0242086154     0.3352094263     0.2383343182
Bq        -1.0676364745     0.3499498816     0.5348081620
Bq        -1.0097326624     0.3302959413     0.1395097036
Bq        -1.0821124276     0.3548633667     0.6336327766
Bq        -0.9952567093     0.3253824562     0.0406850891
Bq        -1.0965883806     0.3597768518     0.7324573911
Bq        -0.9807807563     0.3204689711    -0.0581395255
Bq        -1.1110643337     0.3646903368     0.8312820057
Bq        -0.9663048032     0.3155554860    -0.1569641401
Bq        -1.0386845684     0.3401229114     0.3371589328
Bq        -1.0524483875     0.4449156119     0.4311219426
Bq        -1.0234964815     0.4350886417     0.2334727135
Bq        -1.0669243406     0.4498290970     0.5299465572
Bq        -1.0090205284     0.4301751566     0.1346480989
Bq        -1.0814002936     0.4547425820     0.6287711718
Bq        -0.9945445754     0.4252616716     0.0358234843
Bq        -1.0958762467     0.4596560671     0.7275957864
Bq        -0.9800686223     0.4203481865    -0.0630011303
Bq        -1.1103521997     0.4645695522     0.8264204010
Bq        -0.9655926693     0.4154347014    -0.1618257449
Bq        -1.0379724345     0.4400021268     0.3322973280
Bq        -1.0517362536     0.5447948273     0.4262603379
Bq        -1.0227843475     0.5349678571     0.2286111087
Bq        -1.0662122066     0.5497083123     0.5250849524
Bq        -1.0083083945     0.5300543720     0.1297864941
Bq        -1.0806881597     0.5546217974     0.6239095670
Bq        -0.9938324414     0.5251408869     0.0309618795
Bq        -1.0951641127     0.5595352825     0.7227341816
Bq        -0.9793564884     0.5202274018    -0.0678627351
Bq        -1.1096400658     0.5644487676     0.8215587962
Bq        -0.9648805353     0.5153139168    -0.1666873496
Bq        -1.0372603006     0.5398813422     0.3274357233
Bq        -1.0510241197     0.6446740426     0.4213987331
Bq        -1.0220722136     0.6348470725     0.2237495039
Bq        -1.0655000727     0.6495875277     0.5202233477
Bq        -1.0075962605     0.6299335874     0.1249248893
Bq        -1.0799760258     0.6545010128     0.6190479623
Bq        -0.9931203075     0.6250201023     0.0261002748
Bq        -1.0944519788     0.6594144979     0.7178725768
Bq        -0.9786443544     0.6201066172    -0.0727243398
Bq        -1.1089279318     0.6643279830     0.8166971914
Bq        -0.9641684014     0.6151931321    -0.1715489544
Bq        -1.0365481666     0.6397605576     0.3225741185
Bq        -1.0503119857     0.7445532580     0.4165371283
Bq        -1.0213600796     0.7347262878     0.2188878992
Bq        -1.0647879388     0.7494667431     0.5153617429
Bq        -1.0068841266     0.7298128028     0.1200632846
Bq        -1.0792638918     0.7543802282     0.6141863575
Bq        -0.9924081735     0.7248993177     0.0212386700
Bq        -1.0937398449     0.7592937133     0.7130109721
Bq        -0.9779322205     0.7199858326    -0.0775859446
Bq        -1.1082157979     0.7642071983     0.8118355867
Bq        -0.9634562675     0.7150723475    -0.1764105592
Bq        -1.0358360327     0.7396397729     0.3177125137
Bq        -1.0495998518     0.8444324734     0.4116755236
Bq        -1.0206479457     0.8346055032     0.2140262944
Bq        -1.0640758048     0.8493459585     0.5105001381
Bq        -1.0061719926     0.8296920181     0.1152016798
Bq        -1.0785517579     0.8542594436     0.6093247527
Bq        -0.9916960396     0.8247785331     0.0163770652
Bq        -1.0930277109     0.8591729286     0.7081493673
Bq        -0.9772200866     0.8198650480    -0.0824475494
Bq        -1.1075036640     0.8640864137     0.8069739819
Bq        -0.9627441335     0.8149515629    -0.1812721639
Bq        -1.0351238987     0.8395189883     0.3128509090
Bq        -1.0488877178     0.9443116888     0.4068139188
Bq        -1.0199358117     0.9344847186     0.2091646896
Bq        -1.0633636709     0.9492251739     0.5056385334
Bq        -1.0054598587     0.9295712335     0.1103400750
Bq        -1.0778396239     0.9541386589     0.6044631480
Bq        -0.9909839057     0.9246577484     0.0115154605
Bq        -1.0923155770     0.9590521440     0.7032877625
Bq        -0.9765079526     0.9197442634    -0.0873091541
Bq        -1.1067915300     0.9639656291     0.8021123771
Bq        -0.9620319996     0.9148307783    -0.1861337687
Bq        -1.0344117648     0.9393982037     0.3079893042
Bq        -1.0481755839     1.0441909041     0.4019523140
Bq        -1.0192236778     1.0343639340     0.2043030849
Bq        -1.0626515369     1.0491043892     0.5007769286
Bq        -1.0047477248     1.0294504489     0.1054784703
Bq        -1.0771274900     1.0540178743     0.5996015432
Bq        -0.9902717717     1.0245369638     0.0066538557
Bq        -1.0916034430     1.0589313594     0.6984261578

1
2
3
4
5
6
7
8
9
10
11
12
13
14
15
16
17
18
19
20
21
22
23
24
25
26
27
28
29
30
31
32
33
34
35
36
37
38
39
40
41
42
43
44
45
46
47
48
49
50
51
52
53
54
55
56
57
58
59
60
61
62
63
64
65
66
67
68
69
70
71
72
73
74
75
76
77
78
79
80
81
82
83
84
85
86
87
88
89
90
91
92
93
94
95
96
97
98
99
100
101
102
103
104
105
106
107
108
109
110
111
112
113
114
115
116
117
118
119
120
121
122
123
124
125
126
127
128
129
130
131
132
133
134
135
136
137
138
139
140
141
142
143
144
145
146
147
148
149
150
151
152
153
154
155
156
157
158
159
160
161
162
163
164
165
166
167
168
169
170
171
172
173
174
175
176
177
178
179
180
181
182
183
184
185
186
187
188
189
190
191
192
193
194
195
196
197
198
199
200
201
202
203
204
205
206
207
208
209
210
211
212
213
214
215
216
217
218
219
220
221
222
223
224
225
226
227
228
229
230
231
232
233
234
235
236

