%nproc=8
%mem=1000MB
# rb3lyp/6-311+g** NMR geom=connectivity

Title

0 1
C    -4.0500558   -0.5771862    0.8136712
H    -5.0263804   -1.0082727    1.0024760
C    -3.9381552    0.6617804    0.2400876
H    -4.8252424    1.2338890   -0.0111295
C    -2.6768410    1.2433246    0.0057578
C    -1.4974121    0.5051527    0.2848253
C    -1.6508332   -0.7338728    0.9404026
H    -0.7713646   -1.2730967    1.2633753
C    -2.8898548   -1.2624035    1.1994307
H    -2.9683706   -2.2124563    1.7152676
C    -2.5773185    2.5963696   -0.4192930
H    -3.4870728    3.1412239   -0.6474055
C    -1.3741895    3.2147896   -0.4364030
H    -1.2997315    4.2742019   -0.6578144
C    -0.1719488    2.4994090   -0.1734588
C    -0.2043917    1.1018437    0.0192689
C     1.0513491    3.2042560   -0.0676222
H     1.0427344    4.2819499   -0.1896997
C     2.1942091    2.5487446    0.2579577
H     3.1168527    3.0912848    0.4334727
C     2.2216473    1.1336562    0.2934990
C     1.0486931    0.3945528    0.0302412
C     3.4483363    0.4614633    0.5573939
H     4.3095794    1.0606054    0.8334846
C     3.5427346   -0.8855926    0.4749463
H     4.4731467   -1.3939704    0.7038822
C     2.4490052   -1.6474447   -0.0196319
C     1.2150704   -1.0057258   -0.3013573
C     0.2531113   -1.7434440   -1.0216591
H    -0.6541356   -1.2535051   -1.3462847
C     0.4494193   -3.0628597   -1.3413779
H    -0.3083162   -3.5944309   -1.9054060
C     1.6251726   -3.7207967   -0.9552541
H     1.7670048   -4.7687404   -1.1927019
C     2.6109872   -3.0144177   -0.3183050
H     3.5525612   -3.4902813   -0.0646367
Bq        -1.9830951204     1.9881546798     0.3880303368
Bq        -1.9816791381     1.8142238118     0.0278275492
Bq        -1.9834491160     2.0316373968     0.4780810336
Bq        -1.9813251425     1.7707410947    -0.0622231476
Bq        -1.9838031115     2.0751201138     0.5681317305
Bq        -1.9809711469     1.7272583777    -0.1522738445
Bq        -1.9841571071     2.1186028308     0.6581824274
Bq        -1.9806171514     1.6837756607    -0.2423245414
Bq        -1.9823871292     1.9011892458     0.2079289430
Bq        -1.9825701925     2.0347233554     0.2544972589
Bq        -1.9818622014     1.9477579214     0.0743958651
Bq        -1.9829241881     2.0782060724     0.3445479557
Bq        -1.9815082058     1.9042752044    -0.0156548318
Bq        -1.9832781837     2.1216887894     0.4345986526
Bq        -1.9811542102     1.8607924874    -0.1057055287
Bq        -1.9836321793     2.1651715065     0.5246493495
Bq        -1.9808002147     1.8173097704    -0.1957562256
Bq        -1.9839861748     2.2086542235     0.6147000464
Bq        -1.9804462191     1.7738270534    -0.2858069224
Bq        -1.9822161970     1.9912406384     0.1644465620
Bq        -1.9823992603     2.1247747481     0.2110148778
Bq        -1.9816912691     2.0378093141     0.0309134841
Bq        -1.9827532558     2.1682574651     0.3010655747
Bq        -1.9813372735     1.9943265971    -0.0591372128
Bq        -1.9831072514     2.2117401821     0.3911162716
Bq        -1.9809832780     1.9508438801    -0.1491879097
Bq        -1.9834612470     2.2552228991     0.4811669685
Bq        -1.9806292824     1.9073611631    -0.2392386066
Bq        -1.9838152426     2.2987056161     0.5712176653
Bq        -1.9802752868     1.8638784461    -0.3292893035
Bq        -1.9820452647     2.0812920311     0.1209641809
Bq        -1.9822283280     2.2148261408     0.1675324968
Bq        -1.9815203368     2.1278607068    -0.0125688970
Bq        -1.9825823236     2.2583088578     0.2575831937
Bq        -1.9811663413     2.0843779898    -0.1026195939
Bq        -1.9829363191     2.3017915748     0.3476338906
Bq        -1.9808123457     2.0408952728    -0.1926702907
Bq        -1.9832903147     2.3452742918     0.4376845874
Bq        -1.9804583501     1.9974125558    -0.2827209876
Bq        -1.9836443103     2.3887570088     0.5277352843
Bq        -1.9801043545     1.9539298388    -0.3727716845
Bq        -1.9818743324     2.1713434238     0.0774817999
Bq        -1.9820573957     2.3048775334     0.1240501158
Bq        -1.9813494046     2.2179120994    -0.0560512780
Bq        -1.9824113913     2.3483602505     0.2141008126
Bq        -1.9809954090     2.1744293824    -0.1461019749
Bq        -1.9827653869     2.3918429675     0.3041515095
Bq        -1.9806414134     2.1309466654    -0.2361526718
Bq        -1.9831193824     2.4353256845     0.3942022064
Bq        -1.9802874178     2.0874639484    -0.3262033687
Bq        -1.9834733780     2.4788084015     0.4842529033
Bq        -1.9799334223     2.0439812314    -0.4162540655
Bq        -1.9817034001     2.2613948164     0.0339994189
Bq        -1.9818864634     2.3949289261     0.0805677347
Bq        -1.9811784723     2.3079634921    -0.0995336590
Bq        -1.9822404590     2.4384116431     0.1706184316
Bq        -1.9808244767     2.2644807751    -0.1895843559
Bq        -1.9825944546     2.4818943601     0.2606691285
Bq        -1.9804704811     2.2209980581    -0.2796350528
Bq        -1.9829484502     2.5253770771     0.3507198254
Bq        -1.9801164856     2.1775153411    -0.3696857497
Bq        -1.9833024457     2.5688597941     0.4407705223
Bq        -1.9797624900     2.1340326241    -0.4597364466
Bq        -1.9815324679     2.3514462091    -0.0094829622
Bq        -1.9817155312     2.4849803188     0.0370853537
Bq        -1.9810075400     2.3980148848    -0.1430160401
Bq        -1.9820695267     2.5284630358     0.1271360506
Bq        -1.9806535444     2.3545321678    -0.2330667370
Bq        -1.9824235223     2.5719457528     0.2171867475
Bq        -1.9802995489     2.3110494508    -0.3231174338
Bq        -1.9827775179     2.6154284698     0.3072374443
Bq        -1.9799455533     2.2675667338    -0.4131681307
Bq        -1.9831315135     2.6589111868     0.3972881412
Bq        -1.9795915577     2.2240840168    -0.5032188276
Bq        -1.9813615356     2.4414976018    -0.0529653432
Bq        -1.8902629176    -2.0175893147     2.2115975093
Bq        -1.8895549264    -2.1045547487     2.0314961155
Bq        -1.8906169131    -1.9741065977     2.3016482061
Bq        -1.8892009308    -2.1480374658     1.9414454186
Bq        -1.8909709087    -1.9306238807     2.3916989030
Bq        -1.8888469353    -2.1915201828     1.8513947217
Bq        -1.8913249043    -1.8871411637     2.4817495999
Bq        -1.8884929397    -2.2350028998     1.7613440248
Bq        -1.8916788999    -1.8436584467     2.5718002968
Bq        -1.8881389441    -2.2784856168     1.6712933280
Bq        -1.8899089220    -2.0610720317     2.1215468124
Bq        -1.8900919853    -1.9275379221     2.1681151282
Bq        -1.8893839941    -2.0145033561     1.9880137345
Bq        -1.8904459809    -1.8840552051     2.2581658251
Bq        -1.8890299986    -2.0579860731     1.8979630376
Bq        -1.8907999764    -1.8405724881     2.3482165220
Bq        -1.8886760030    -2.1014687901     1.8079123407
Bq        -1.8911539720    -1.7970897711     2.4382672189
Bq        -1.8883220074    -2.1449515071     1.7178616438
Bq        -1.8915079676    -1.7536070540     2.5283179158
Bq        -1.8879680118    -2.1884342241     1.6278109469
Bq        -1.8897379897    -1.9710206391     2.0780644313
Bq        -1.8899210530    -1.8374865294     2.1246327472
Bq        -1.8892130619    -1.9244519634     1.9445313534
Bq        -1.8902750486    -1.7940038124     2.2146834441
Bq        -1.8888590663    -1.9679346804     1.8544806565
Bq        -1.8906290442    -1.7505210954     2.3047341410
Bq        -1.8885050707    -2.0114173974     1.7644299597
Bq        -1.8909830397    -1.7070383784     2.3947848378
Bq        -1.8881510751    -2.0549001144     1.6743792628
Bq        -1.8913370353    -1.6635556614     2.4848355347
Bq        -1.8877970796    -2.0983828314     1.5843285659
Bq        -1.8895670574    -1.8809692464     2.0345820503
Bq        -1.8897501207    -1.7474351367     2.0811503662
Bq        -1.8890421296    -1.8344005707     1.9010489724
Bq        -1.8901041163    -1.7039524197     2.1712010630
Bq        -1.8886881340    -1.8778832877     1.8109982755
Bq        -1.8904581119    -1.6604697027     2.2612517599
Bq        -1.8883341384    -1.9213660047     1.7209475786
Bq        -1.8908121075    -1.6169869857     2.3513024568
Bq        -1.8879801429    -1.9648487217     1.6308968817
Bq        -1.8911661030    -1.5735042687     2.4413531537
Bq        -1.8876261473    -2.0083314388     1.5408461849
Bq        -1.8893961252    -1.7909178537     1.9910996693
Bq        -1.8895791885    -1.6573837441     2.0376679851
Bq        -1.8888711973    -1.7443491781     1.8575665914
Bq        -1.8899331840    -1.6139010270     2.1277186820
Bq        -1.8885172017    -1.7878318951     1.7675158945
Bq        -1.8902871796    -1.5704183100     2.2177693789
Bq        -1.8881632062    -1.8313146121     1.6774651976
Bq        -1.8906411752    -1.5269355930     2.3078200758
Bq        -1.8878092106    -1.8747973291     1.5874145007
Bq        -1.8909951708    -1.4834528760     2.3978707727
Bq        -1.8874552150    -1.9182800461     1.4973638038
Bq        -1.8892251929    -1.7008664611     1.9476172882
Bq        -1.8894082562    -1.5673323514     1.9941856041
Bq        -1.8887002650    -1.6542977854     1.8140842103
Bq        -1.8897622518    -1.5238496344     2.0842363010
Bq        -1.8883462695    -1.6977805024     1.7240335134
Bq        -1.8901162473    -1.4803669174     2.1742869979
Bq        -1.8879922739    -1.7412632194     1.6339828166
Bq        -1.8904702429    -1.4368842004     2.2643376947
Bq        -1.8876382783    -1.7847459364     1.5439321197
Bq        -1.8908242385    -1.3934014834     2.3543883916
Bq        -1.8872842827    -1.8282286534     1.4538814228
Bq        -1.8890542606    -1.6108150684     1.9041349072
Bq        -1.8892373239    -1.4772809587     1.9507032231
Bq        -1.8885293328    -1.5642463927     1.7706018293
Bq        -1.8895913195    -1.4337982417     2.0407539199
Bq        -1.8881753372    -1.6077291097     1.6805511324
Bq        -1.8899453151    -1.3903155247     2.1308046168
Bq        -1.8878213416    -1.6512118267     1.5905004355
Bq        -1.8902993106    -1.3468328077     2.2208553137
Bq        -1.8874673460    -1.6946945437     1.5004497386
Bq        -1.8906533062    -1.3033500907     2.3109060106
Bq        -1.8871133505    -1.7381772607     1.4103990418
Bq        -1.8888833283    -1.5207636757     1.8606525262
Bq        -1.8890663916    -1.3872295660     1.9072208420
Bq        -1.8883584005    -1.4741950001     1.7271194483
Bq        -1.8894203872    -1.3437468490     1.9972715389
Bq        -1.8880044049    -1.5176777171     1.6370687514
Bq        -1.8897743828    -1.3002641320     2.0873222358
Bq        -1.8876504093    -1.5611604341     1.5470180545
Bq        -1.8901283784    -1.2567814150     2.1773729327
Bq        -1.8872964138    -1.6046431511     1.4569673576
Bq        -1.8904823739    -1.2132986980     2.2674236296
Bq        -1.8869424182    -1.6481258681     1.3669166607
Bq        -1.8887123961    -1.4307122830     1.8171701451
Bq        -1.8888954594    -1.2971781734     1.8637384610
Bq        -1.8881874682    -1.3841436074     1.6836370672
Bq        -1.8892494549    -1.2536954564     1.9537891579
Bq        -1.8878334726    -1.4276263244     1.5935863703
Bq        -1.8896034505    -1.2102127394     2.0438398548
Bq        -1.8874794771    -1.4711090414     1.5035356735
Bq        -1.8899574461    -1.1667300224     2.1338905516
Bq        -1.8871254815    -1.5145917584     1.4134849766
Bq        -1.8903114417    -1.1232473054     2.2239412485
Bq        -1.8867714859    -1.5580744754     1.3234342797
Bq        -1.8885414638    -1.3406608904     1.7736877641
Bq        -1.8887245271    -1.2071267807     1.8202560800
Bq        -1.8880165359    -1.2940922147     1.6401546862
Bq        -1.8890785227    -1.1636440637     1.9103067768
Bq        -1.8876625404    -1.3375749317     1.5501039893
Bq        -1.8894325182    -1.1201613467     2.0003574737
Bq        -1.8873085448    -1.3810576487     1.4600532924
Bq        -1.8897865138    -1.0766786297     2.0904081706
Bq        -1.8869545492    -1.4245403657     1.3700025955
Bq        -1.8901405094    -1.0331959127     2.1804588675
Bq        -1.8866005536    -1.4680230827     1.2799518987
Bq        -1.8883705315    -1.2506094977     1.7302053831
Bq        -1.8885535948    -1.1170753880     1.7767736989
Bq        -1.8878456037    -1.2040408220     1.5966723052
Bq        -1.8889075904    -1.0735926710     1.8668243958
Bq        -1.8874916081    -1.2475235390     1.5066216083
Bq        -1.8892615860    -1.0301099540     1.9568750927
Bq        -1.8871376125    -1.2910062560     1.4165709114
Bq        -1.8896155815    -0.9866272370     2.0469257896
Bq        -1.8867836169    -1.3344889731     1.3265202145
Bq        -1.8899695771    -0.9431445200     2.1369764865
Bq        -1.8864296214    -1.3779716901     1.2364695176
Bq        -1.8881995992    -1.1605581050     1.6867230020
Bq        -1.8883826625    -1.0270239954     1.7332913179
Bq        -1.8876746714    -1.1139894294     1.5531899241
Bq        -1.8887366581    -0.9835412784     1.8233420148
Bq        -1.8873206758    -1.1574721464     1.4631392272

1
2
3
4
5
6
7
8
9
10
11
12
13
14
15
16
17
18
19
20
21
22
23
24
25
26
27
28
29
30
31
32
33
34
35
36
37
38
39
40
41
42
43
44
45
46
47
48
49
50
51
52
53
54
55
56
57
58
59
60
61
62
63
64
65
66
67
68
69
70
71
72
73
74
75
76
77
78
79
80
81
82
83
84
85
86
87
88
89
90
91
92
93
94
95
96
97
98
99
100
101
102
103
104
105
106
107
108
109
110
111
112
113
114
115
116
117
118
119
120
121
122
123
124
125
126
127
128
129
130
131
132
133
134
135
136
137
138
139
140
141
142
143
144
145
146
147
148
149
150
151
152
153
154
155
156
157
158
159
160
161
162
163
164
165
166
167
168
169
170
171
172
173
174
175
176
177
178
179
180
181
182
183
184
185
186
187
188
189
190
191
192
193
194
195
196
197
198
199
200
201
202
203
204
205
206
207
208
209
210
211
212
213
214
215
216
217
218
219
220
221
222
223
224
225
226
227
228
229
230
231
232
233
234
235
236

