%nproc=8
%mem=1000MB
# rb3lyp/6-311+g** NMR geom=connectivity

Title

0 1
C    -4.0500558   -0.5771862    0.8136712
H    -5.0263804   -1.0082727    1.0024760
C    -3.9381552    0.6617804    0.2400876
H    -4.8252424    1.2338890   -0.0111295
C    -2.6768410    1.2433246    0.0057578
C    -1.4974121    0.5051527    0.2848253
C    -1.6508332   -0.7338728    0.9404026
H    -0.7713646   -1.2730967    1.2633753
C    -2.8898548   -1.2624035    1.1994307
H    -2.9683706   -2.2124563    1.7152676
C    -2.5773185    2.5963696   -0.4192930
H    -3.4870728    3.1412239   -0.6474055
C    -1.3741895    3.2147896   -0.4364030
H    -1.2997315    4.2742019   -0.6578144
C    -0.1719488    2.4994090   -0.1734588
C    -0.2043917    1.1018437    0.0192689
C     1.0513491    3.2042560   -0.0676222
H     1.0427344    4.2819499   -0.1896997
C     2.1942091    2.5487446    0.2579577
H     3.1168527    3.0912848    0.4334727
C     2.2216473    1.1336562    0.2934990
C     1.0486931    0.3945528    0.0302412
C     3.4483363    0.4614633    0.5573939
H     4.3095794    1.0606054    0.8334846
C     3.5427346   -0.8855926    0.4749463
H     4.4731467   -1.3939704    0.7038822
C     2.4490052   -1.6474447   -0.0196319
C     1.2150704   -1.0057258   -0.3013573
C     0.2531113   -1.7434440   -1.0216591
H    -0.6541356   -1.2535051   -1.3462847
C     0.4494193   -3.0628597   -1.3413779
H    -0.3083162   -3.5944309   -1.9054060
C     1.6251726   -3.7207967   -0.9552541
H     1.7670048   -4.7687404   -1.1927019
C     2.6109872   -3.0144177   -0.3183050
H     3.5525612   -3.4902813   -0.0646367
Bq         0.2146099177     3.8555493900     0.7507161902
Bq         0.3304175420     3.8162415093    -0.0398807265
Bq         0.2001339646     3.8604628750     0.8495408048
Bq         0.3448934951     3.8113280242    -0.1387053411
Bq         0.2725137298     3.8358954496     0.3554177319
Bq         0.2587499107     3.9406881501     0.4493807417
Bq         0.2877018168     3.9308611799     0.2517315125
Bq         0.2442739577     3.9456016352     0.5482053563
Bq         0.3021777699     3.9259476948     0.1529068979
Bq         0.2297980047     3.9505151202     0.6470299709
Bq         0.3166537229     3.9210342098     0.0540822833
Bq         0.2153220516     3.9554286053     0.7458545854
Bq         0.3311296760     3.9161207247    -0.0447423312
Bq         0.2008460986     3.9603420904     0.8446792000
Bq         0.3456056290     3.9112072396    -0.1435669458
Bq         0.2732258638     3.9357746650     0.3505561271
Bq         0.2594620447     4.0405673655     0.4445191369
Bq         0.2884139508     4.0307403953     0.2468699077
Bq         0.2449860916     4.0454808505     0.5433437515
Bq         0.3028899038     4.0258269102     0.1480452932
Bq         0.2305101386     4.0503943356     0.6421683661
Bq         0.3173658569     4.0209134251     0.0492206786
Bq         0.2160341856     4.0553078207     0.7409929807
Bq         0.3318418099     4.0159999400    -0.0496039360
Bq         0.2015582325     4.0602213058     0.8398175953
Bq         0.3463177629     4.0110864550    -0.1484285506
Bq         0.2739379977     4.0356538804     0.3456945223
Bq         0.2601741786     4.1404465808     0.4396575321
Bq         0.2891260847     4.1306196107     0.2420083030
Bq         0.2456982256     4.1453600659     0.5384821467
Bq         0.3036020378     4.1257061256     0.1431836884
Bq         0.2312222725     4.1502735510     0.6373067613
Bq         0.3180779908     4.1207926405     0.0443590738
Bq         0.2167463195     4.1551870361     0.7361313759
Bq         0.3325539438     4.1158791554    -0.0544655408
Bq         0.2022703664     4.1601005212     0.8349559905
Bq         0.3470298969     4.1109656703    -0.1532901554
Bq         0.2746501317     4.1355330958     0.3408329176
Bq         0.2608863126     4.2403257962     0.4347959274
Bq         0.2898382187     4.2304988260     0.2371466982
Bq         0.2464103595     4.2452392813     0.5336205420
Bq         0.3043141717     4.2255853410     0.1383220836
Bq         0.2319344065     4.2501527664     0.6324451566
Bq         0.3187901247     4.2206718559     0.0394974690
Bq         0.2174584534     4.2550662515     0.7312697711
Bq         0.3332660778     4.2157583708    -0.0593271455
Bq         0.2029825004     4.2599797365     0.8300943857
Bq         0.3477420308     4.2108448857    -0.1581517601
Bq         0.2753622656     4.2354123111     0.3359713128
Bq         0.2615984465     4.3402050116     0.4299343226
Bq         0.2905503526     4.3303780414     0.2322850934
Bq         0.2471224935     4.3451184967     0.5287589372
Bq         0.3050263056     4.3254645563     0.1334604789
Bq         0.2326465404     4.3500319818     0.6275835518
Bq         0.3195022587     4.3205510713     0.0346358643
Bq         0.2181705874     4.3549454668     0.7264081664
Bq         0.3339782117     4.3156375862    -0.0641887503
Bq         0.2036946343     4.3598589519     0.8252327810
Bq         0.3484541648     4.3107241011    -0.1630133649
Bq         0.2760743996     4.3352915265     0.3311097080
Bq         0.3249358733    -0.6537557573     0.6875080199
Bq         0.3538877794    -0.6635827274     0.4898587907
Bq         0.3104599203    -0.6488422722     0.7863326344
Bq         0.3683637324    -0.6684962125     0.3910341761
Bq         0.2959839672    -0.6439287871     0.8851572490
Bq         0.3828396855    -0.6734096976     0.2922095615
Bq         0.2815080142    -0.6390153020     0.9839818636
Bq         0.3973156385    -0.6783231827     0.1933849469
Bq         0.2670320611    -0.6341018169     1.0828064782
Bq         0.4117915916    -0.6832366678     0.0945603323
Bq         0.3394118263    -0.6586692423     0.5886834053
Bq         0.3256480072    -0.5538765419     0.6826464151
Bq         0.3545999133    -0.5637035121     0.4849971859
Bq         0.3111720542    -0.5489630568     0.7814710297
Bq         0.3690758664    -0.5686169971     0.3861725713
Bq         0.2966961011    -0.5440495717     0.8802956443
Bq         0.3835518194    -0.5735304822     0.2873479567
Bq         0.2822201481    -0.5391360866     0.9791202588
Bq         0.3980277725    -0.5784439673     0.1885233422
Bq         0.2677441951    -0.5342226016     1.0779448734
Bq         0.4125037255    -0.5833574524     0.0896987276
Bq         0.3401239603    -0.5587900270     0.5838218005
Bq         0.3263601412    -0.4539973265     0.6777848103
Bq         0.3553120473    -0.4638242967     0.4801355812
Bq         0.3118841881    -0.4490838414     0.7766094249
Bq         0.3697880003    -0.4687377818     0.3813109666
Bq         0.2974082351    -0.4441703563     0.8754340395
Bq         0.3842639534    -0.4736512668     0.2824863520
Bq         0.2829322820    -0.4392568713     0.9742586541
Bq         0.3987399064    -0.4785647519     0.1836617374
Bq         0.2684563290    -0.4343433862     1.0730832687
Bq         0.4132158594    -0.4834782370     0.0848371228
Bq         0.3408360942    -0.4589108116     0.5789601957
Bq         0.3270722751    -0.3541181111     0.6729232056
Bq         0.3560241812    -0.3639450813     0.4752739764
Bq         0.3125963221    -0.3492046261     0.7717478201
Bq         0.3705001343    -0.3688585664     0.3764493618
Bq         0.2981203690    -0.3442911410     0.8705724347
Bq         0.3849760873    -0.3737720515     0.2776247472
Bq         0.2836444160    -0.3393776559     0.9693970493
Bq         0.3994520403    -0.3786855365     0.1788001326
Bq         0.2691684629    -0.3344641708     1.0682216639
Bq         0.4139279934    -0.3835990216     0.0799755180
Bq         0.3415482282    -0.3590315962     0.5740985910
Bq         0.3277844091    -0.2542388958     0.6680616008
Bq         0.3567363152    -0.2640658659     0.4704123716
Bq         0.3133084560    -0.2493254107     0.7668862154
Bq         0.3712122682    -0.2689793510     0.3715877570
Bq         0.2988325030    -0.2444119256     0.8657108300
Bq         0.3856882212    -0.2738928361     0.2727631424
Bq         0.2843565499    -0.2394984405     0.9645354445
Bq         0.4001641743    -0.2788063212     0.1739385279
Bq         0.2698805969    -0.2345849554     1.0633600591
Bq         0.4146401273    -0.2837198063     0.0751139133
Bq         0.3422603621    -0.2591523808     0.5692369862
Bq         0.3284965430    -0.1543596804     0.6631999960
Bq         0.3574484491    -0.1641866505     0.4655507669
Bq         0.3140205900    -0.1494461953     0.7620246106
Bq         0.3719244021    -0.1691001356     0.3667261523
Bq         0.2995446369    -0.1445327102     0.8608492252
Bq         0.3864003552    -0.1740136207     0.2679015377
Bq         0.2850686839    -0.1396192251     0.9596738398
Bq         0.4008763082    -0.1789271058     0.1690769231
Bq         0.2705927308    -0.1347057400     1.0584984544
Bq         0.4153522613    -0.1838405909     0.0702523085
Bq         0.3429724960    -0.1592731655     0.5643753814
Bq         0.3292086769    -0.0544804650     0.6583383913
Bq         0.3581605830    -0.0643074352     0.4606891621
Bq         0.3147327239    -0.0495669799     0.7571630058
Bq         0.3726365361    -0.0692209203     0.3618645475
Bq         0.3002567709    -0.0446534948     0.8559876204
Bq         0.3871124891    -0.0741344053     0.2630399329
Bq         0.2857808178    -0.0397400098     0.9548122350
Bq         0.4015884422    -0.0790478904     0.1642153183
Bq         0.2713048648    -0.0348265247     1.0536368496
Bq         0.4160643952    -0.0839613755     0.0653907037
Bq         0.3436846300    -0.0593939501     0.5595137767
Bq         0.3299208109     0.0453987504     0.6534767865
Bq         0.3588727170     0.0355717802     0.4558275573
Bq         0.3154448578     0.0503122355     0.7523014011
Bq         0.3733486700     0.0306582951     0.3570029427
Bq         0.3009689048     0.0552257205     0.8511260157
Bq         0.3878246231     0.0257448100     0.2581783281
Bq         0.2864929518     0.0601392056     0.9499506302
Bq         0.4023005761     0.0208313250     0.1593537136
Bq         0.2720169987     0.0650526907     1.0487752448
Bq         0.4167765292     0.0159178399     0.0605290990
Bq         0.3443967639     0.0404852653     0.5546521719
Bq         0.3306329448     0.1452779658     0.6486151817
Bq         0.3595848509     0.1354509956     0.4509659526
Bq         0.3161569918     0.1501914508     0.7474397963
Bq         0.3740608040     0.1305375105     0.3521413380
Bq         0.3016810387     0.1551049359     0.8462644109
Bq         0.3885367570     0.1256240254     0.2533167234
Bq         0.2872050857     0.1600184210     0.9450890255
Bq         0.4030127101     0.1207105403     0.1544921088
Bq         0.2727291327     0.1649319061     1.0439136401
Bq         0.4174886631     0.1157970553     0.0556674942
Bq         0.3451088979     0.1403644807     0.5497905671
Bq         0.3313450788     0.2451571811     0.6437535770
Bq         0.3602969849     0.2353302110     0.4461043478
Bq         0.3168691257     0.2500706662     0.7425781915
Bq         0.3747729379     0.2304167259     0.3472797332
Bq         0.3023931727     0.2549841513     0.8414028061
Bq         0.3892488909     0.2255032408     0.2484551186
Bq         0.2879172196     0.2598976364     0.9402274207
Bq         0.4037248440     0.2205897557     0.1496305040
Bq         0.2734412666     0.2648111215     1.0390520353
Bq         0.4182007970     0.2156762706     0.0508058894
Bq         0.3458210318     0.2402436960     0.5449289624
Bq         0.3320572127     0.3450363965     0.6388919722
Bq         0.3610091188     0.3352094263     0.4412427430
Bq         0.3175812597     0.3499498816     0.7377165868
Bq         0.3754850718     0.3302959413     0.3424181284
Bq         0.3031053066     0.3548633667     0.8365412014
Bq         0.3899610249     0.3253824562     0.2435935138
Bq         0.2886293536     0.3597768518     0.9353658159
Bq         0.4044369779     0.3204689711     0.1447688993
Bq         0.2741534005     0.3646903368     1.0341904305
Bq         0.4189129310     0.3155554860     0.0459442847
Bq         0.3465331658     0.3401229114     0.5400673576
Bq         0.3327693467     0.4449156119     0.6340303674
Bq         0.3617212527     0.4350886417     0.4363811383
Bq         0.3182933936     0.4498290970     0.7328549820
Bq         0.3761972058     0.4301751566     0.3375565237
Bq         0.3038174406     0.4547425820     0.8316795966
Bq         0.3906731588     0.4252616716     0.2387319091
Bq         0.2893414875     0.4596560671     0.9305042112
Bq         0.4051491119     0.4203481865     0.1399072945
Bq         0.2748655345     0.4645695522     1.0293288258
Bq         0.4196250649     0.4154347014     0.0410826799
Bq         0.3472452997     0.4400021268     0.5352057528
Bq         0.3334814806     0.5447948273     0.6291687627
Bq         0.3624333867     0.5349678571     0.4315195335
Bq         0.3190055276     0.5497083123     0.7279933772
Bq         0.3769093397     0.5300543720     0.3326949189
Bq         0.3045295745     0.5546217974     0.8268179918
Bq         0.3913852928     0.5251408869     0.2338703043
Bq         0.2900536215     0.5595352825     0.9256426064
Bq         0.4058612458     0.5202274018     0.1350456897

1
2
3
4
5
6
7
8
9
10
11
12
13
14
15
16
17
18
19
20
21
22
23
24
25
26
27
28
29
30
31
32
33
34
35
36
37
38
39
40
41
42
43
44
45
46
47
48
49
50
51
52
53
54
55
56
57
58
59
60
61
62
63
64
65
66
67
68
69
70
71
72
73
74
75
76
77
78
79
80
81
82
83
84
85
86
87
88
89
90
91
92
93
94
95
96
97
98
99
100
101
102
103
104
105
106
107
108
109
110
111
112
113
114
115
116
117
118
119
120
121
122
123
124
125
126
127
128
129
130
131
132
133
134
135
136
137
138
139
140
141
142
143
144
145
146
147
148
149
150
151
152
153
154
155
156
157
158
159
160
161
162
163
164
165
166
167
168
169
170
171
172
173
174
175
176
177
178
179
180
181
182
183
184
185
186
187
188
189
190
191
192
193
194
195
196
197
198
199
200
201
202
203
204
205
206
207
208
209
210
211
212
213
214
215
216
217
218
219
220
221
222
223
224
225
226
227
228
229
230
231
232
233
234
235
236

