%nproc=8
%mem=1000MB
# rb3lyp/6-311+g** NMR geom=connectivity

Title

0 1
C    -4.0500558   -0.5771862    0.8136712
H    -5.0263804   -1.0082727    1.0024760
C    -3.9381552    0.6617804    0.2400876
H    -4.8252424    1.2338890   -0.0111295
C    -2.6768410    1.2433246    0.0057578
C    -1.4974121    0.5051527    0.2848253
C    -1.6508332   -0.7338728    0.9404026
H    -0.7713646   -1.2730967    1.2633753
C    -2.8898548   -1.2624035    1.1994307
H    -2.9683706   -2.2124563    1.7152676
C    -2.5773185    2.5963696   -0.4192930
H    -3.4870728    3.1412239   -0.6474055
C    -1.3741895    3.2147896   -0.4364030
H    -1.2997315    4.2742019   -0.6578144
C    -0.1719488    2.4994090   -0.1734588
C    -0.2043917    1.1018437    0.0192689
C     1.0513491    3.2042560   -0.0676222
H     1.0427344    4.2819499   -0.1896997
C     2.1942091    2.5487446    0.2579577
H     3.1168527    3.0912848    0.4334727
C     2.2216473    1.1336562    0.2934990
C     1.0486931    0.3945528    0.0302412
C     3.4483363    0.4614633    0.5573939
H     4.3095794    1.0606054    0.8334846
C     3.5427346   -0.8855926    0.4749463
H     4.4731467   -1.3939704    0.7038822
C     2.4490052   -1.6474447   -0.0196319
C     1.2150704   -1.0057258   -0.3013573
C     0.2531113   -1.7434440   -1.0216591
H    -0.6541356   -1.2535051   -1.3462847
C     0.4494193   -3.0628597   -1.3413779
H    -0.3083162   -3.5944309   -1.9054060
C     1.6251726   -3.7207967   -0.9552541
H     1.7670048   -4.7687404   -1.1927019
C     2.6109872   -3.0144177   -0.3183050
H     3.5525612   -3.4902813   -0.0646367
Bq        -2.7498496027     0.1164886627     0.6821190012
Bq        -2.7613755467     0.1901366148     0.9727100055
Bq        -2.7460076214     0.0919393453     0.5852553332
Bq        -2.7652175281     0.2146859322     1.0695736736
Bq        -2.7421656401     0.0673900279     0.4883916651
Bq        -2.7690595094     0.2392352495     1.1664373417
Bq        -2.7383236588     0.0428407105     0.3915279970
Bq        -2.7729014907     0.2637845669     1.2633010098
Bq        -2.7344816774     0.0182913932     0.2946643289
Bq        -2.7536915841     0.1410379800     0.7789826693
Bq        -2.7565606112     0.2625271294     0.8513163080
Bq        -2.7488766485     0.2134284946     0.6575889718
Bq        -2.7604025925     0.2870764467     0.9481799761
Bq        -2.7450346672     0.1888791772     0.5607253037
Bq        -2.7642445738     0.3116257641     1.0450436442
Bq        -2.7411926859     0.1643298598     0.4638616356
Bq        -2.7680865552     0.3361750815     1.1419073123
Bq        -2.7373507045     0.1397805425     0.3669979675
Bq        -2.7719285365     0.3607243989     1.2387709804
Bq        -2.7335087232     0.1152312251     0.2701342995
Bq        -2.7527186298     0.2379778120     0.7544526399
Bq        -2.7555876570     0.3594669613     0.8267862786
Bq        -2.7479036943     0.3103683265     0.6330589424
Bq        -2.7594296383     0.3840162787     0.9236499467
Bq        -2.7440617130     0.2858190092     0.5361952743
Bq        -2.7632716196     0.4085655960     1.0205136147
Bq        -2.7402197316     0.2612696918     0.4393316062
Bq        -2.7671136009     0.4331149134     1.1173772828
Bq        -2.7363777503     0.2367203744     0.3424679381
Bq        -2.7709555823     0.4576642308     1.2142409509
Bq        -2.7325357690     0.2121710570     0.2456042700
Bq        -2.7517456756     0.3349176439     0.7299226105
Bq        -2.7546147027     0.4564067932     0.8022562491
Bq        -2.7469307401     0.4073081585     0.6085289130
Bq        -2.7584566841     0.4809561106     0.8991199172
Bq        -2.7430887587     0.3827588411     0.5116652449
Bq        -2.7622986654     0.5055054280     0.9959835853
Bq        -2.7392467774     0.3582095237     0.4148015768
Bq        -2.7661406467     0.5300547454     1.0928472534
Bq        -2.7354047961     0.3336602064     0.3179379087
Bq        -2.7699826280     0.5546040627     1.1897109215
Bq        -2.7315628148     0.3091108890     0.2210742406
Bq        -2.7507727214     0.4318574759     0.7053925811
Bq        -2.7536417485     0.5533466252     0.7777262197
Bq        -2.7459577858     0.5042479904     0.5839988835
Bq        -2.7574837298     0.5778959425     0.8745898878
Bq        -2.7421158045     0.4796986730     0.4871352154
Bq        -2.7613257112     0.6024452599     0.9714535559
Bq        -2.7382738232     0.4551493557     0.3902715474
Bq        -2.7651676925     0.6269945773     1.0683172240
Bq        -2.7344318419     0.4306000383     0.2934078793
Bq        -2.7690096738     0.6515438947     1.1651808921
Bq        -2.7305898605     0.4060507209     0.1965442112
Bq        -2.7497997672     0.5287973078     0.6808625516
Bq        -2.7526687943     0.6502864571     0.7531961903
Bq        -2.7449848316     0.6011878224     0.5594688541
Bq        -2.7565107756     0.6748357745     0.8500598584
Bq        -2.7411428503     0.5766385050     0.4626051860
Bq        -2.7603527569     0.6993850919     0.9469235265
Bq        -2.7373008690     0.5520891876     0.3657415179
Bq        -2.7641947383     0.7239344092     1.0437871946
Bq        -2.7334588876     0.5275398702     0.2688778498
Bq        -2.7680367196     0.7484837266     1.1406508626
Bq        -2.7296169063     0.5029905529     0.1720141817
Bq        -2.7488268129     0.6257371397     0.6563325222
Bq        -2.7516958401     0.7472262890     0.7286661609
Bq        -2.7440118774     0.6981276543     0.5349388247
Bq        -2.7555378214     0.7717756064     0.8255298289
Bq        -2.7401698961     0.6735783369     0.4380751566
Bq        -2.7593798027     0.7963249238     0.9223934970
Bq        -2.7363279147     0.6490290195     0.3412114885
Bq        -2.7632217840     0.8208742412     1.0192571651
Bq        -2.7324859334     0.6244797022     0.2443478204
Bq        -2.7670637654     0.8454235585     1.1161208332
Bq        -2.7286439521     0.5999303848     0.1474841523
Bq        -2.7478538587     0.7226769717     0.6318024928
Bq        -2.7507228858     0.8441661210     0.7041361314
Bq        -2.7430389232     0.7950674862     0.5104087953
Bq        -2.7545648672     0.8687154384     0.8009997995
Bq        -2.7391969418     0.7705181689     0.4135451272
Bq        -2.7584068485     0.8932647557     0.8978634676
Bq        -2.7353549605     0.7459688515     0.3166814591
Bq        -2.7622488298     0.9178140731     0.9947271357
Bq        -2.7315129792     0.7214195341     0.2198177910
Bq        -2.7660908111     0.9423633905     1.0915908038
Bq        -2.7276709979     0.6968702167     0.1229541229
Bq        -2.7468809045     0.8196168036     0.6072724633
Bq        -2.7497499316     0.9411059529     0.6796061020
Bq        -2.7420659689     0.8920073182     0.4858787658
Bq        -2.7535919129     0.9656552703     0.7764697701
Bq        -2.7382239876     0.8674580008     0.3890150977
Bq        -2.7574338943     0.9902045877     0.8733334382
Bq        -2.7343820063     0.8429086834     0.2921514296
Bq        -2.7612758756     1.0147539051     0.9701971063
Bq        -2.7305400250     0.8183593660     0.1952877616
Bq        -2.7651178569     1.0393032224     1.0670607744
Bq        -2.7266980436     0.7938100487     0.0984240935
Bq        -2.7459079503     0.9165566355     0.5827424339
Bq        -2.7487769774     1.0380457849     0.6550760726
Bq        -2.7410930147     0.9889471501     0.4613487364
Bq        -2.7526189587     1.0625951022     0.7519397407
Bq        -2.7372510334     0.9643978327     0.3644850683
Bq        -2.7564609400     1.0871444196     0.8488034088
Bq        -2.7334090521     0.9398485154     0.2676214002
Bq        -2.7603029214     1.1116937370     0.9456670768
Bq        -2.7295670707     0.9152991980     0.1707577321
Bq        -2.7641449027     1.1362430544     1.0425307449
Bq        -2.7257250894     0.8907498806     0.0738940640
Bq        -2.7449349961     1.0134964675     0.5582124045
Bq        -2.7478040232     1.1349856168     0.6305460432
Bq        -2.7401200605     1.0858869821     0.4368187070
Bq        -2.7516460045     1.1595349342     0.7274097112
Bq        -2.7362780792     1.0613376647     0.3399550389
Bq        -2.7554879858     1.1840842516     0.8242733793
Bq        -2.7324360978     1.0367883473     0.2430913708
Bq        -2.7593299671     1.2086335689     0.9211370474
Bq        -2.7285941165     1.0122390299     0.1462277027
Bq        -2.7631719485     1.2331828863     1.0180007155
Bq        -2.7247521352     0.9876897125     0.0493640346
Bq        -2.7439620418     1.1104362994     0.5336823751
Bq        -2.7468310689     1.2319254487     0.6060160137
Bq        -2.7391471063     1.1828268140     0.4122886775
Bq        -2.7506730503     1.2564747661     0.7028796818
Bq        -2.7353051249     1.1582774966     0.3154250095
Bq        -2.7545150316     1.2810240835     0.7997433499
Bq        -2.7314631436     1.1337281792     0.2185613414
Bq        -2.7583570129     1.3055734009     0.8966070180
Bq        -2.7276211623     1.1091788619     0.1216976733
Bq        -2.7621989942     1.3301227182     0.9934706861
Bq        -2.7237791810     1.0846295445     0.0248340052
Bq        -2.7429890876     1.2073761314     0.5091523456
Bq        -2.7458581147     1.3288652807     0.5814859843
Bq        -2.7381741520     1.2797666459     0.3877586481
Bq        -2.7497000960     1.3534145981     0.6783496524
Bq        -2.7343321707     1.2552173286     0.2908949800
Bq        -2.7535420774     1.3779639154     0.7752133205
Bq        -2.7304901894     1.2306680112     0.1940313119
Bq        -2.7573840587     1.4025132328     0.8720769886
Bq        -2.7266482081     1.2061186938     0.0971676438
Bq        -2.7612260400     1.4270625502     0.9689406567
Bq        -2.7228062267     1.1815693764     0.0003039758
Bq        -2.7420161334     1.3043159633     0.4846223162
Bq        -2.7448851605     1.4258051126     0.5569559549
Bq        -2.7372011978     1.3767064779     0.3632286187
Bq        -2.7487271418     1.4503544300     0.6538196230
Bq        -2.7333592165     1.3521571605     0.2663649506
Bq        -2.7525691231     1.4749037474     0.7506832910
Bq        -2.7295172352     1.3276078431     0.1695012825
Bq        -2.7564111045     1.4994530647     0.8475469591
Bq        -2.7256752538     1.3030585257     0.0726376144
Bq        -2.7602530858     1.5240023821     0.9444106272
Bq        -2.7218332725     1.2785092084    -0.0242260537
Bq        -2.7410431792     1.4012557952     0.4600922868
Bq        -2.7439122063     1.5227449446     0.5324259254
Bq        -2.7362282436     1.4736463098     0.3386985893
Bq        -2.7477541876     1.5472942619     0.6292895935
Bq        -2.7323862623     1.4490969924     0.2418349212
Bq        -2.7515961689     1.5718435793     0.7261532616
Bq        -2.7285442809     1.4245476751     0.1449712531
Bq        -2.7554381502     1.5963928967     0.8230169297
Bq        -2.7247022996     1.3999983577     0.0481075850
Bq        -2.7592801316     1.6209422141     0.9198805978
Bq        -2.7208603183     1.3754490403    -0.0487560831
Bq        -2.7400702249     1.4981956272     0.4355622574
Bq        -2.7429392520     1.6196847765     0.5078958960
Bq        -2.7352552894     1.5705861417     0.3141685598
Bq        -2.7467812334     1.6442340939     0.6047595641
Bq        -2.7314133080     1.5460368244     0.2173048917
Bq        -2.7506232147     1.6687834113     0.7016232322
Bq        -2.7275713267     1.5214875070     0.1204412237
Bq        -2.7544651960     1.6933327286     0.7984869003
Bq        -2.7237293454     1.4969381896     0.0235775556
Bq        -2.7583071774     1.7178820460     0.8953505684
Bq        -2.7198873641     1.4723888722    -0.0732861125
Bq        -2.7390972707     1.5951354591     0.4110322279
Bq        -2.7419662978     1.7166246084     0.4833658666
Bq        -2.7342823352     1.6675259737     0.2896385304
Bq        -2.7458082791     1.7411739258     0.5802295347
Bq        -2.7304403538     1.6429766563     0.1927748623
Bq        -2.7496502605     1.7657232432     0.6770932028
Bq        -2.7265983725     1.6184273389     0.0959111942
Bq        -2.7534922418     1.7902725606     0.7739568709
Bq        -2.7227563912     1.5938780216    -0.0009524739
Bq        -2.7573342231     1.8148218779     0.8708205389
Bq        -2.7189144098     1.5693287042    -0.0978161420
Bq        -2.7381243165     1.6920752911     0.3865021985
Bq        -2.7409933436     1.8135644404     0.4588358372
Bq        -2.7333093809     1.7644658056     0.2651085010
Bq        -2.7448353249     1.8381137578     0.5556995053
Bq        -2.7294673996     1.7399164882     0.1682448329
Bq        -2.7486773062     1.8626630751     0.6525631733
Bq        -2.7256254183     1.7153671709     0.0713811648
Bq        -2.7525192876     1.8872123925     0.7494268414
Bq        -2.7217834369     1.6908178535    -0.0254825033
Bq        -2.7563612689     1.9117617099     0.8462905095
Bq        -2.7179414556     1.6662685361    -0.1223461714
Bq        -2.7371513623     1.7890151230     0.3619721691
Bq        -2.7400203894     1.9105042723     0.4343058077
Bq        -2.7323364267     1.8614056376     0.2405784716
Bq        -2.7438623707     1.9350535897     0.5311694758

1
2
3
4
5
6
7
8
9
10
11
12
13
14
15
16
17
18
19
20
21
22
23
24
25
26
27
28
29
30
31
32
33
34
35
36
37
38
39
40
41
42
43
44
45
46
47
48
49
50
51
52
53
54
55
56
57
58
59
60
61
62
63
64
65
66
67
68
69
70
71
72
73
74
75
76
77
78
79
80
81
82
83
84
85
86
87
88
89
90
91
92
93
94
95
96
97
98
99
100
101
102
103
104
105
106
107
108
109
110
111
112
113
114
115
116
117
118
119
120
121
122
123
124
125
126
127
128
129
130
131
132
133
134
135
136
137
138
139
140
141
142
143
144
145
146
147
148
149
150
151
152
153
154
155
156
157
158
159
160
161
162
163
164
165
166
167
168
169
170
171
172
173
174
175
176
177
178
179
180
181
182
183
184
185
186
187
188
189
190
191
192
193
194
195
196
197
198
199
200
201
202
203
204
205
206
207
208
209
210
211
212
213
214
215
216
217
218
219
220
221
222
223
224
225
226
227
228
229
230
231
232
233
234
235
236

