%nproc=8
%mem=1000MB
# rb3lyp/6-311+g** NMR geom=connectivity

Title

0 1
C    -4.0500558   -0.5771862    0.8136712
H    -5.0263804   -1.0082727    1.0024760
C    -3.9381552    0.6617804    0.2400876
H    -4.8252424    1.2338890   -0.0111295
C    -2.6768410    1.2433246    0.0057578
C    -1.4974121    0.5051527    0.2848253
C    -1.6508332   -0.7338728    0.9404026
H    -0.7713646   -1.2730967    1.2633753
C    -2.8898548   -1.2624035    1.1994307
H    -2.9683706   -2.2124563    1.7152676
C    -2.5773185    2.5963696   -0.4192930
H    -3.4870728    3.1412239   -0.6474055
C    -1.3741895    3.2147896   -0.4364030
H    -1.2997315    4.2742019   -0.6578144
C    -0.1719488    2.4994090   -0.1734588
C    -0.2043917    1.1018437    0.0192689
C     1.0513491    3.2042560   -0.0676222
H     1.0427344    4.2819499   -0.1896997
C     2.1942091    2.5487446    0.2579577
H     3.1168527    3.0912848    0.4334727
C     2.2216473    1.1336562    0.2934990
C     1.0486931    0.3945528    0.0302412
C     3.4483363    0.4614633    0.5573939
H     4.3095794    1.0606054    0.8334846
C     3.5427346   -0.8855926    0.4749463
H     4.4731467   -1.3939704    0.7038822
C     2.4490052   -1.6474447   -0.0196319
C     1.2150704   -1.0057258   -0.3013573
C     0.2531113   -1.7434440   -1.0216591
H    -0.6541356   -1.2535051   -1.3462847
C     0.4494193   -3.0628597   -1.3413779
H    -0.3083162   -3.5944309   -1.9054060
C     1.6251726   -3.7207967   -0.9552541
H     1.7670048   -4.7687404   -1.1927019
C     2.6109872   -3.0144177   -0.3183050
H     3.5525612   -3.4902813   -0.0646367
Bq         0.3438728027     0.1410379800     0.9018438491
Bq         0.3410037756     0.2625271294     0.9741774878
Bq         0.3486877383     0.2134284946     0.7804501516
Bq         0.3371617943     0.2870764467     1.0710411559
Bq         0.3525297196     0.1888791772     0.6835864835
Bq         0.3333198130     0.3116257641     1.1679048240
Bq         0.3563717010     0.1643298598     0.5867228154
Bq         0.3294778317     0.3361750815     1.2647684921
Bq         0.3602136823     0.1397805425     0.4898591473
Bq         0.3256358503     0.3607243989     1.3616321601
Bq         0.3640556636     0.1152312251     0.3929954792
Bq         0.3448457570     0.2379778120     0.8773138197
Bq         0.3419767299     0.3594669613     0.9496474584
Bq         0.3496606925     0.3103683265     0.7559201222
Bq         0.3381347485     0.3840162787     1.0465111264
Bq         0.3535026739     0.2858190092     0.6590564541
Bq         0.3342927672     0.4085655960     1.1433747945
Bq         0.3573446552     0.2612696918     0.5621927860
Bq         0.3304507859     0.4331149134     1.2402384626
Bq         0.3611866365     0.2367203744     0.4653291179
Bq         0.3266088046     0.4576642308     1.3371021307
Bq         0.3650286178     0.2121710570     0.3684654498
Bq         0.3458187112     0.3349176439     0.8527837903
Bq         0.3429496841     0.4564067932     0.9251174289
Bq         0.3506336468     0.4073081585     0.7313900927
Bq         0.3391077028     0.4809561106     1.0219810970
Bq         0.3544756281     0.3827588411     0.6345264247
Bq         0.3352657214     0.5055054280     1.1188447651
Bq         0.3583176094     0.3582095237     0.5376627566
Bq         0.3314237401     0.5300547454     1.2157084332
Bq         0.3621595907     0.3336602064     0.4407990885
Bq         0.3275817588     0.5546040627     1.3125721013
Bq         0.3660015721     0.3091108890     0.3439354204
Bq         0.3467916654     0.4318574759     0.8282537608
Bq         0.3439226383     0.5533466252     0.9005873995
Bq         0.3516066010     0.5042479904     0.7068600633
Bq         0.3400806570     0.5778959425     0.9974510676
Bq         0.3554485823     0.4796986730     0.6099963952
Bq         0.3362386757     0.6024452599     1.0943147357
Bq         0.3592905636     0.4551493557     0.5131327271
Bq         0.3323966943     0.6269945773     1.1911784038
Bq         0.3631325450     0.4306000383     0.4162690591
Bq         0.3285547130     0.6515438947     1.2880420719
Bq         0.3669745263     0.4060507209     0.3194053910
Bq         0.3477646196     0.5287973078     0.8037237314
Bq         0.3448955925     0.6502864571     0.8760573701
Bq         0.3525795552     0.6011878224     0.6823300339
Bq         0.3410536112     0.6748357745     0.9729210382
Bq         0.3564215365     0.5766385050     0.5854663658
Bq         0.3372116299     0.6993850919     1.0697847063
Bq         0.3602635179     0.5520891876     0.4886026977
Bq         0.3333696486     0.7239344092     1.1666483743
Bq         0.3641054992     0.5275398702     0.3917390296
Bq         0.3295276672     0.7484837266     1.2635120424
Bq         0.3679474805     0.5029905529     0.2948753615
Bq         0.3487375739     0.6257371397     0.7791937020
Bq         0.3458685468     0.7472262890     0.8515273406
Bq         0.3535525094     0.6981276543     0.6578000045
Bq         0.3420265654     0.7717756064     0.9483910087
Bq         0.3573944908     0.6735783369     0.5609363364
Bq         0.3381845841     0.7963249238     1.0452546768
Bq         0.3612364721     0.6490290195     0.4640726683
Bq         0.3343426028     0.8208742412     1.1421183449
Bq         0.3650784534     0.6244797022     0.3672090002
Bq         0.3305006215     0.8454235585     1.2389820130
Bq         0.3689204347     0.5999303848     0.2703453321
Bq         0.3497105281     0.7226769717     0.7546636726
Bq         0.3468415010     0.8441661210     0.8269973112
Bq         0.3545254636     0.7950674862     0.6332699750
Bq         0.3429995197     0.8687154384     0.9238609793
Bq         0.3583674450     0.7705181689     0.5364063069
Bq         0.3391575383     0.8932647557     1.0207246474
Bq         0.3622094263     0.7459688515     0.4395426389
Bq         0.3353155570     0.9178140731     1.1175883155
Bq         0.3660514076     0.7214195341     0.3426789708
Bq         0.3314735757     0.9423633905     1.2144519836
Bq         0.3698933890     0.6968702167     0.2458153027
Bq         0.3506834823     0.8196168036     0.7301336431
Bq         0.3478144552     0.9411059529     0.8024672818
Bq         0.3554984179     0.8920073182     0.6087399456
Bq         0.3439724739     0.9656552703     0.8993309499
Bq         0.3593403992     0.8674580008     0.5118762775
Bq         0.3401304926     0.9902045877     0.9961946180
Bq         0.3631823805     0.8429086834     0.4150126094
Bq         0.3362885112     1.0147539051     1.0930582861
Bq         0.3670243619     0.8183593660     0.3181489413
Bq         0.3324465299     1.0393032224     1.1899219542
Bq         0.3708663432     0.7938100487     0.2212852733
Bq         0.3516564365     0.9165566355     0.7056036137
Bq         0.3487874094     1.0380457849     0.7779372524
Bq         0.3564713721     0.9889471501     0.5842099162
Bq         0.3449454281     1.0625951022     0.8748009205
Bq         0.3603133534     0.9643978327     0.4873462481
Bq         0.3411034468     1.0871444196     0.9716645885
Bq         0.3641553348     0.9398485154     0.3904825800
Bq         0.3372614655     1.1116937370     1.0685282566
Bq         0.3679973161     0.9152991980     0.2936189119
Bq         0.3334194841     1.1362430544     1.1653919247
Bq         0.3718392974     0.8907498806     0.1967552438
Bq         0.3526293908     1.0134964675     0.6810735843
Bq         0.3497603637     1.1349856168     0.7534072229
Bq         0.3574443263     1.0858869821     0.5596798868
Bq         0.3459183823     1.1595349342     0.8502708910
Bq         0.3612863077     1.0613376647     0.4628162187
Bq         0.3420764010     1.1840842516     0.9471345591
Bq         0.3651282890     1.0367883473     0.3659525506
Bq         0.3382344197     1.2086335689     1.0439982272
Bq         0.3689702703     1.0122390299     0.2690888825
Bq         0.3343924383     1.2331828863     1.1408618953
Bq         0.3728122516     0.9876897125     0.1722252144
Bq         0.3536023450     1.1104362994     0.6565435548
Bq         0.3507333179     1.2319254487     0.7288771935
Bq         0.3584172805     1.1828268140     0.5351498573
Bq         0.3468913366     1.2564747661     0.8257408616
Bq         0.3622592619     1.1582774966     0.4382861892
Bq         0.3430493552     1.2810240835     0.9226045297
Bq         0.3661012432     1.1337281792     0.3414225212
Bq         0.3392073739     1.3055734009     1.0194681978
Bq         0.3699432245     1.1091788619     0.2445588531
Bq         0.3353653926     1.3301227182     1.1163318659
Bq         0.3737852059     1.0846295445     0.1476951850
Bq         0.3545752992     1.2073761314     0.6320135254
Bq         0.3517062721     1.3288652807     0.7043471641
Bq         0.3593902348     1.2797666459     0.5106198279
Bq         0.3478642908     1.3534145981     0.8012108322
Bq         0.3632322161     1.2552173286     0.4137561598
Bq         0.3440223095     1.3779639154     0.8980745003
Bq         0.3670741974     1.2306680112     0.3168924917
Bq         0.3401803281     1.4025132328     0.9949381684
Bq         0.3709161788     1.2061186938     0.2200288236
Bq         0.3363383468     1.4270625502     1.0918018364
Bq         0.3747581601     1.1815693764     0.1231651555
Bq         0.3555482534     1.3043159633     0.6074834960
Bq         0.3526792263     1.4258051126     0.6798171347
Bq         0.3603631890     1.3767064779     0.4860897985
Bq         0.3488372450     1.4503544300     0.7766808027
Bq         0.3642051703     1.3521571605     0.3892261304
Bq         0.3449952637     1.4749037474     0.8735444708
Bq         0.3680471517     1.3276078431     0.2923624623
Bq         0.3411532824     1.4994530647     0.9704081389
Bq         0.3718891330     1.3030585257     0.1954987942
Bq         0.3373113010     1.5240023821     1.0672718070
Bq         0.3757311143     1.2785092084     0.0986351261
Bq         0.3565212077     1.4012557952     0.5829534666
Bq         0.3536521806     1.5227449446     0.6552871052
Bq         0.3613361432     1.4736463098     0.4615597690
Bq         0.3498101992     1.5472942619     0.7521507733
Bq         0.3651781245     1.4490969924     0.3646961010
Bq         0.3459682179     1.5718435793     0.8490144414
Bq         0.3690201059     1.4245476751     0.2678324329
Bq         0.3421262366     1.5963928967     0.9458781095
Bq         0.3728620872     1.3999983577     0.1709687648
Bq         0.3382842552     1.6209422141     1.0427417776
Bq         0.3767040685     1.3754490403     0.0741050967
Bq         0.3574941619     1.4981956272     0.5584234371
Bq         0.3546251348     1.6196847765     0.6307570758
Bq         0.3623090974     1.5705861417     0.4370297396
Bq         0.3507831535     1.6442340939     0.7276207439
Bq         0.3661510788     1.5460368244     0.3401660715
Bq         0.3469411721     1.6687834113     0.8244844120
Bq         0.3699930601     1.5214875070     0.2433024034
Bq         0.3430991908     1.6933327286     0.9213480801
Bq         0.3738350414     1.4969381896     0.1464387354
Bq         0.3392572095     1.7178820460     1.0182117482
Bq         0.3776770228     1.4723888722     0.0495750673
Bq         0.3584671161     1.5951354591     0.5338934077
Bq         0.3555980890     1.7166246084     0.6062270464
Bq         0.3632820517     1.6675259737     0.4124997102
Bq         0.3517561077     1.7411739258     0.7030907145
Bq         0.3671240330     1.6429766563     0.3156360421
Bq         0.3479141264     1.7657232432     0.7999543826
Bq         0.3709660143     1.6184273389     0.2187723740
Bq         0.3440721450     1.7902725606     0.8968180506
Bq         0.3748079957     1.5938780216     0.1219087059
Bq         0.3402301637     1.8148218779     0.9936817187
Bq         0.3786499770     1.5693287042     0.0250450378
Bq         0.3594400703     1.6920752911     0.5093633783
Bq         0.3565710432     1.8135644404     0.5816970169
Bq         0.3642550059     1.7644658056     0.3879696808
Bq         0.3527290619     1.8381137578     0.6785606850
Bq         0.3680969872     1.7399164882     0.2911060127
Bq         0.3488870806     1.8626630751     0.7754243531
Bq         0.3719389686     1.7153671709     0.1942423446
Bq         0.3450450992     1.8872123925     0.8722880212
Bq         0.3757809499     1.6908178535     0.0973786765
Bq         0.3412031179     1.9117617099     0.9691516893
Bq         0.3796229312     1.6662685361     0.0005150084
Bq         0.3604130246     1.7890151230     0.4848333489
Bq         0.3575439975     1.9105042723     0.5571669875
Bq         0.3652279601     1.8614056376     0.3634396513
Bq         0.3537020161     1.9350535897     0.6540306556
Bq         0.3690699414     1.8368563202     0.2665759833
Bq         0.3498600348     1.9596029071     0.7508943237
Bq         0.3729119228     1.8123070028     0.1697123152
Bq         0.3460180535     1.9841522244     0.8477579918
Bq         0.3767539041     1.7877576854     0.0728486471
Bq         0.3421760721     2.0087015418     0.9446216599
Bq         0.3805958854     1.7632083681    -0.0240150210
Bq         0.3613859788     1.8859549549     0.4603033194
Bq         0.3585169517     2.0074441043     0.5326369581

1
2
3
4
5
6
7
8
9
10
11
12
13
14
15
16
17
18
19
20
21
22
23
24
25
26
27
28
29
30
31
32
33
34
35
36
37
38
39
40
41
42
43
44
45
46
47
48
49
50
51
52
53
54
55
56
57
58
59
60
61
62
63
64
65
66
67
68
69
70
71
72
73
74
75
76
77
78
79
80
81
82
83
84
85
86
87
88
89
90
91
92
93
94
95
96
97
98
99
100
101
102
103
104
105
106
107
108
109
110
111
112
113
114
115
116
117
118
119
120
121
122
123
124
125
126
127
128
129
130
131
132
133
134
135
136
137
138
139
140
141
142
143
144
145
146
147
148
149
150
151
152
153
154
155
156
157
158
159
160
161
162
163
164
165
166
167
168
169
170
171
172
173
174
175
176
177
178
179
180
181
182
183
184
185
186
187
188
189
190
191
192
193
194
195
196
197
198
199
200
201
202
203
204
205
206
207
208
209
210
211
212
213
214
215
216
217
218
219
220
221
222
223
224
225
226
227
228
229
230
231
232
233
234
235
236

