%nproc=8
%mem=1000MB
# rb3lyp/6-311+g** NMR geom=connectivity

Title

0 1
C    -4.0500558   -0.5771862    0.8136712
H    -5.0263804   -1.0082727    1.0024760
C    -3.9381552    0.6617804    0.2400876
H    -4.8252424    1.2338890   -0.0111295
C    -2.6768410    1.2433246    0.0057578
C    -1.4974121    0.5051527    0.2848253
C    -1.6508332   -0.7338728    0.9404026
H    -0.7713646   -1.2730967    1.2633753
C    -2.8898548   -1.2624035    1.1994307
H    -2.9683706   -2.2124563    1.7152676
C    -2.5773185    2.5963696   -0.4192930
H    -3.4870728    3.1412239   -0.6474055
C    -1.3741895    3.2147896   -0.4364030
H    -1.2997315    4.2742019   -0.6578144
C    -0.1719488    2.4994090   -0.1734588
C    -0.2043917    1.1018437    0.0192689
C     1.0513491    3.2042560   -0.0676222
H     1.0427344    4.2819499   -0.1896997
C     2.1942091    2.5487446    0.2579577
H     3.1168527    3.0912848    0.4334727
C     2.2216473    1.1336562    0.2934990
C     1.0486931    0.3945528    0.0302412
C     3.4483363    0.4614633    0.5573939
H     4.3095794    1.0606054    0.8334846
C     3.5427346   -0.8855926    0.4749463
H     4.4731467   -1.3939704    0.7038822
C     2.4490052   -1.6474447   -0.0196319
C     1.2150704   -1.0057258   -0.3013573
C     0.2531113   -1.7434440   -1.0216591
H    -0.6541356   -1.2535051   -1.3462847
C     0.4494193   -3.0628597   -1.3413779
H    -0.3083162   -3.5944309   -1.9054060
C     1.6251726   -3.7207967   -0.9552541
H     1.7670048   -4.7687404   -1.1927019
C     2.6109872   -3.0144177   -0.3183050
H     3.5525612   -3.4902813   -0.0646367
Bq         1.2938924372    -4.7058286695    -1.3188443868
Bq         0.9351365631    -4.9453695295    -0.5289618644
Bq         1.3337542010    -4.6792130184    -1.4066091115
Bq         1.1344453821    -4.8122912740    -0.9677854879
Bq         1.0835771449    -4.7425139424    -0.8557875128
Bq         1.1633006725    -4.6892826401    -1.0313169622
Bq         1.0437153811    -4.7691295935    -0.7680227881
Bq         1.2031624363    -4.6626669890    -1.1190816869
Bq         1.0038536173    -4.7957452446    -0.6802580633
Bq         1.2430242001    -4.6360513379    -1.2068464116
Bq         0.9639918536    -4.8223608957    -0.5924933386
Bq         1.2828859639    -4.6094356868    -1.2946111363
Bq         0.9241300898    -4.8489765468    -0.5047286139
Bq         1.3227477276    -4.5828200357    -1.3823758610
Bq         1.1234389087    -4.7158982912    -0.9435522375
Bq         1.0725706715    -4.6461209596    -0.8315542623
Bq         1.1522941991    -4.5928896574    -1.0070837117
Bq         1.0327089078    -4.6727366108    -0.7437895376
Bq         1.1921559629    -4.5662740063    -1.0948484365
Bq         0.9928471440    -4.6993522619    -0.6560248129
Bq         1.2320177267    -4.5396583552    -1.1826131612
Bq         0.9529853802    -4.7259679130    -0.5682600882
Bq         1.2718794905    -4.5130427041    -1.2703778859
Bq         0.9131236164    -4.7525835641    -0.4804953635
Bq         1.3117412543    -4.4864270530    -1.3581426106
Bq         1.1124324353    -4.6195053085    -0.9193189870
Bq         1.0615641982    -4.5497279769    -0.8073210119
Bq         1.1412877257    -4.4964966747    -0.9828504613
Bq         1.0217024344    -4.5763436280    -0.7195562871
Bq         1.1811494895    -4.4698810236    -1.0706151860
Bq         0.9818406706    -4.6029592791    -0.6317915624
Bq         1.2210112533    -4.4432653725    -1.1583799107
Bq         0.9419789068    -4.6295749303    -0.5440268377
Bq         1.2608730171    -4.4166497214    -1.2461446354
Bq         0.9021171430    -4.6561905814    -0.4562621130
Bq         1.3007347809    -4.3900340703    -1.3339093601
Bq         1.1014259620    -4.5231123258    -0.8950857366
Bq         1.0505577248    -4.4533349942    -0.7830877614
Bq         1.1302812524    -4.4001036920    -0.9586172108
Bq         1.0106959610    -4.4799506453    -0.6953230367
Bq         1.1701430162    -4.3734880409    -1.0463819355
Bq         0.9708341972    -4.5065662964    -0.6075583120
Bq         1.2100047799    -4.3468723898    -1.1341466602
Bq         0.9309724334    -4.5331819475    -0.5197935873
Bq         1.2498665437    -4.3202567387    -1.2219113850
Bq         0.8911106696    -4.5597975986    -0.4320288625
Bq         1.2897283075    -4.2936410876    -1.3096761097
Bq         1.0904194886    -4.4267193431    -0.8708524861
Bq         1.0395512514    -4.3569420115    -0.7588545109
Bq         1.1192747790    -4.3037107093    -0.9343839604
Bq         0.9996894876    -4.3835576626    -0.6710897862
Bq         1.1591365428    -4.2770950582    -1.0221486851
Bq         0.9598277238    -4.4101733137    -0.5833250615
Bq         1.1989983066    -4.2504794071    -1.1099134098
Bq         0.9199659601    -4.4367889648    -0.4955603368
Bq         1.2388600704    -4.2238637560    -1.1976781345
Bq         0.8801041963    -4.4634046159    -0.4077956121
Bq         1.2787218341    -4.1972481049    -1.2854428592
Bq         1.0794130152    -4.3303263604    -0.8466192357
Bq         1.0285447781    -4.2605490288    -0.7346212605
Bq         1.1082683056    -4.2073177266    -0.9101507099
Bq         0.9886830143    -4.2871646799    -0.6468565358
Bq         1.1481300694    -4.1807020755    -0.9979154346
Bq         0.9488212505    -4.3137803310    -0.5590918111
Bq         1.1879918332    -4.1540864244    -1.0856801593
Bq         0.9089594867    -4.3403959821    -0.4713270863
Bq         1.2278535970    -4.1274707733    -1.1734448840
Bq         0.8690977229    -4.3670116332    -0.3835623616
Bq         1.2677153608    -4.1008551222    -1.2612096088
Bq         1.0684065418    -4.2339333777    -0.8223859852
Bq         1.0175383047    -4.1641560461    -0.7103880100
Bq         1.0972618323    -4.1109247439    -0.8859174594
Bq         0.9776765409    -4.1907716972    -0.6226232853
Bq         1.1371235960    -4.0843090928    -0.9736821842
Bq         0.9378147771    -4.2173873483    -0.5348585606
Bq         1.1769853598    -4.0576934417    -1.0614469089
Bq         0.8979530133    -4.2440029994    -0.4470938359
Bq         1.2168471236    -4.0310777905    -1.1492116336
Bq         0.8580912495    -4.2706186505    -0.3593291112
Bq         1.2567088874    -4.0044621394    -1.2369763583
Bq         1.0574000685    -4.1375403950    -0.7981527347
Bq         1.0065318313    -4.0677630634    -0.6861547596
Bq         1.0862553589    -4.0145317612    -0.8616842090
Bq         0.9666700675    -4.0943787145    -0.5983900349
Bq         1.1261171227    -3.9879161100    -0.9494489337
Bq         0.9268083037    -4.1209943656    -0.5106253101
Bq         1.1659788865    -3.9613004589    -1.0372136584
Bq         0.8869465399    -4.1476100167    -0.4228605854
Bq         1.2058406502    -3.9346848078    -1.1249783831
Bq         0.8470847762    -4.1742256678    -0.3350958607
Bq         1.2457024140    -3.9080691567    -1.2127431078
Bq         1.0463935951    -4.0411474123    -0.7739194843
Bq         0.9955253579    -3.9713700807    -0.6619215091
Bq         1.0752488855    -3.9181387784    -0.8374509585
Bq         0.9556635941    -3.9979857318    -0.5741567844
Bq         1.1151106493    -3.8915231273    -0.9252156832
Bq         0.9158018304    -4.0246013829    -0.4863920597
Bq         1.1549724131    -3.8649074762    -1.0129804080
Bq         0.8759400666    -4.0512170340    -0.3986273350
Bq         1.1948341769    -3.8382918251    -1.1007451327
Bq         0.8360783028    -4.0778326851    -0.3108626103
Bq         1.2346959407    -3.8116761740    -1.1885098574
Bq         1.0353871217    -3.9447544296    -0.7496862338
Bq         0.9845188846    -3.8749770979    -0.6376882586
Bq         1.0642424121    -3.8217457957    -0.8132177081
Bq         0.9446571208    -3.9015927491    -0.5499235339
Bq         1.1041041759    -3.7951301446    -0.9009824328
Bq         0.9047953570    -3.9282084002    -0.4621588092
Bq         1.1439659397    -3.7685144935    -0.9887471575
Bq         0.8649335932    -3.9548240513    -0.3743940845
Bq         1.1838277035    -3.7418988424    -1.0765118822
Bq         0.8250718294    -3.9814397024    -0.2866293598
Bq         1.2236894673    -3.7152831913    -1.1642766069
Bq         1.0243806484    -3.8483614468    -0.7254529834
Bq         0.9735124112    -3.7785841152    -0.6134550082
Bq         1.0532359388    -3.7253528130    -0.7889844576
Bq         0.9336506474    -3.8051997663    -0.5256902835
Bq         1.0930977026    -3.6987371619    -0.8767491823
Bq         0.8937888836    -3.8318154174    -0.4379255588
Bq         1.1329594663    -3.6721215108    -0.9645139070
Bq         0.8539271198    -3.8584310686    -0.3501608341
Bq         1.1728212301    -3.6455058597    -1.0522786318
Bq         0.8140653560    -3.8850467197    -0.2623961093
Bq         1.2126829939    -3.6188902086    -1.1400433565
Bq         1.0133741750    -3.7519684641    -0.7012197329
Bq         0.9625059378    -3.6821911325    -0.5892217577
Bq         1.0422294654    -3.6289598303    -0.7647512072
Bq         0.9226441740    -3.7088067836    -0.5014570330
Bq         1.0820912292    -3.6023441792    -0.8525159319
Bq         0.8827824102    -3.7354224347    -0.4136923083
Bq         1.1219529930    -3.5757285281    -0.9402806566
Bq         0.8429206465    -3.7620380858    -0.3259275836
Bq         1.1618147568    -3.5491128770    -1.0280453813
Bq         0.8030588827    -3.7886537369    -0.2381628589
Bq         1.2016765205    -3.5224972259    -1.1158101060
Bq         1.0023677016    -3.6555754814    -0.6769864824
Bq         0.9514994644    -3.5857981498    -0.5649885073
Bq         1.0312229920    -3.5325668476    -0.7405179567
Bq         0.9116377007    -3.6124138009    -0.4772237826
Bq         1.0710847558    -3.5059511965    -0.8282826814
Bq         0.8717759369    -3.6390294520    -0.3894590578
Bq         1.1109465196    -3.4793355454    -0.9160474061
Bq         0.8319141731    -3.6656451031    -0.3016943331
Bq         1.1508082834    -3.4527198943    -1.0038121308
Bq         0.7920524093    -3.6922607542    -0.2139296084
Bq         1.1906700472    -3.4261042432    -1.0915768556
Bq         0.9913612282    -3.5591824987    -0.6527532320
Bq         0.9404929911    -3.4894051671    -0.5407552568
Bq         1.0202165187    -3.4361738649    -0.7162847062
Bq         0.9006312273    -3.5160208182    -0.4529905321
Bq         1.0600782824    -3.4095582138    -0.8040494310
Bq         0.8607694635    -3.5426364693    -0.3652258074
Bq         1.0999400462    -3.3829425627    -0.8918141557
Bq         0.8209076997    -3.5692521204    -0.2774610827
Bq         1.1398018100    -3.3563269116    -0.9795788804
Bq         0.7810459359    -3.5958677715    -0.1896963580
Bq         1.1796635738    -3.3297112605    -1.0673436051
Bq         0.9803547549    -3.4627895160    -0.6285199815
Bq         0.9294865177    -3.3930121844    -0.5165220064
Bq         1.0092100453    -3.3397808822    -0.6920514558
Bq         0.8896247539    -3.4196278355    -0.4287572816
Bq         1.0490718091    -3.3131652311    -0.7798161805
Bq         0.8497629901    -3.4462434866    -0.3409925569
Bq         1.0889335729    -3.2865495800    -0.8675809052
Bq         0.8099012263    -3.4728591377    -0.2532278322
Bq         1.1287953366    -3.2599339288    -0.9553456299
Bq         0.7700394626    -3.4994747888    -0.1654631075
Bq         1.1686571004    -3.2333182777    -1.0431103546
Bq         0.9693482815    -3.3663965333    -0.6042867311
Bq         0.9184800443    -3.2966192017    -0.4922887559
Bq         0.9982035719    -3.2433878995    -0.6678182053
Bq         0.8786182805    -3.3232348528    -0.4045240312
Bq         1.0380653357    -3.2167722484    -0.7555829300
Bq         0.8387565168    -3.3498505039    -0.3167593065
Bq         1.0779270995    -3.1901565972    -0.8433476548
Bq         0.7988947530    -3.3764661550    -0.2289945818
Bq         1.1177888633    -3.1635409461    -0.9311123795
Bq         0.7590329892    -3.4030818061    -0.1412298571
Bq         1.1576506271    -3.1369252950    -1.0188771042
Bq         0.9583418081    -3.2700035506    -0.5800534806
Bq         0.9074735710    -3.2002262190    -0.4680555054
Bq         0.9871970985    -3.1469949167    -0.6435849549
Bq         0.8676118072    -3.2268418701    -0.3802907807
Bq         1.0270588623    -3.1203792656    -0.7313496796
Bq         0.8277500434    -3.2534575212    -0.2925260560
Bq         1.0669206261    -3.0937636145    -0.8191144043
Bq         0.7878882796    -3.2800731723    -0.2047613313
Bq         1.1067823899    -3.0671479634    -0.9068791290
Bq         0.7480265158    -3.3066888234    -0.1169966066
Bq         1.1466441537    -3.0405323123    -0.9946438537
Bq         0.9473353347    -3.1736105679    -0.5558202302
Bq         0.8964670976    -3.1038332362    -0.4438222550
Bq         0.9761906252    -3.0506019340    -0.6193517044
Bq         0.8566053338    -3.1304488874    -0.3560575303
Bq         1.0160523889    -3.0239862829    -0.7071164291
Bq         0.8167435700    -3.1570645385    -0.2682928056
Bq         1.0559141527    -2.9973706318    -0.7948811538
Bq         0.7768818062    -3.1836801896    -0.1805280808
Bq         1.0957759165    -2.9707549807    -0.8826458785
Bq         0.7370200424    -3.2102958407    -0.0927633561

1
2
3
4
5
6
7
8
9
10
11
12
13
14
15
16
17
18
19
20
21
22
23
24
25
26
27
28
29
30
31
32
33
34
35
36
37
38
39
40
41
42
43
44
45
46
47
48
49
50
51
52
53
54
55
56
57
58
59
60
61
62
63
64
65
66
67
68
69
70
71
72
73
74
75
76
77
78
79
80
81
82
83
84
85
86
87
88
89
90
91
92
93
94
95
96
97
98
99
100
101
102
103
104
105
106
107
108
109
110
111
112
113
114
115
116
117
118
119
120
121
122
123
124
125
126
127
128
129
130
131
132
133
134
135
136
137
138
139
140
141
142
143
144
145
146
147
148
149
150
151
152
153
154
155
156
157
158
159
160
161
162
163
164
165
166
167
168
169
170
171
172
173
174
175
176
177
178
179
180
181
182
183
184
185
186
187
188
189
190
191
192
193
194
195
196
197
198
199
200
201
202
203
204
205
206
207
208
209
210
211
212
213
214
215
216
217
218
219
220
221
222
223
224
225
226
227
228
229
230
231
232
233
234
235
236

