%nproc=8
%mem=1000MB
# rb3lyp/6-311+g** NMR geom=connectivity

Title

0 1
C    -4.0500558   -0.5771862    0.8136712
H    -5.0263804   -1.0082727    1.0024760
C    -3.9381552    0.6617804    0.2400876
H    -4.8252424    1.2338890   -0.0111295
C    -2.6768410    1.2433246    0.0057578
C    -1.4974121    0.5051527    0.2848253
C    -1.6508332   -0.7338728    0.9404026
H    -0.7713646   -1.2730967    1.2633753
C    -2.8898548   -1.2624035    1.1994307
H    -2.9683706   -2.2124563    1.7152676
C    -2.5773185    2.5963696   -0.4192930
H    -3.4870728    3.1412239   -0.6474055
C    -1.3741895    3.2147896   -0.4364030
H    -1.2997315    4.2742019   -0.6578144
C    -0.1719488    2.4994090   -0.1734588
C    -0.2043917    1.1018437    0.0192689
C     1.0513491    3.2042560   -0.0676222
H     1.0427344    4.2819499   -0.1896997
C     2.1942091    2.5487446    0.2579577
H     3.1168527    3.0912848    0.4334727
C     2.2216473    1.1336562    0.2934990
C     1.0486931    0.3945528    0.0302412
C     3.4483363    0.4614633    0.5573939
H     4.3095794    1.0606054    0.8334846
C     3.5427346   -0.8855926    0.4749463
H     4.4731467   -1.3939704    0.7038822
C     2.4490052   -1.6474447   -0.0196319
C     1.2150704   -1.0057258   -0.3013573
C     0.2531113   -1.7434440   -1.0216591
H    -0.6541356   -1.2535051   -1.3462847
C     0.4494193   -3.0628597   -1.3413779
H    -0.3083162   -3.5944309   -1.9054060
C     1.6251726   -3.7207967   -0.9552541
H     1.7670048   -4.7687404   -1.1927019
C     2.6109872   -3.0144177   -0.3183050
H     3.5525612   -3.4902813   -0.0646367
Bq         1.0232596833     1.8137437167     0.0599809667
Bq        -1.5550024803    -0.6537557573     0.4121323005
Bq        -1.5260505742    -0.6635827274     0.2144830713
Bq        -1.5694784333    -0.6488422722     0.5109569151
Bq        -1.5115746211    -0.6684962125     0.1156584567
Bq        -1.5839543864    -0.6439287871     0.6097815297
Bq        -1.4970986681    -0.6734096976     0.0168338421
Bq        -1.5984303394    -0.6390153020     0.7086061442
Bq        -1.4826227150    -0.6783231827    -0.0819907724
Bq        -1.6129062924    -0.6341018169     0.8074307588
Bq        -1.4681467620    -0.6832366678    -0.1808153870
Bq        -1.5405265272    -0.6586692423     0.3133076859
Bq        -1.5542903463    -0.5538765419     0.4072706957
Bq        -1.5253384402    -0.5637035121     0.2096214666
Bq        -1.5687662994    -0.5489630568     0.5060953103
Bq        -1.5108624872    -0.5686169971     0.1107968520
Bq        -1.5832422524    -0.5440495717     0.6049199249
Bq        -1.4963865341    -0.5735304822     0.0119722374
Bq        -1.5977182055    -0.5391360866     0.7037445395
Bq        -1.4819105811    -0.5784439673    -0.0868523772
Bq        -1.6121941585    -0.5342226016     0.8025691541
Bq        -1.4674346281    -0.5833574524    -0.1856769918
Bq        -1.5398143933    -0.5587900270     0.3084460811
Bq        -1.5535782124    -0.4539973265     0.4024090910
Bq        -1.5246263063    -0.4638242967     0.2047598618
Bq        -1.5680541654    -0.4490838414     0.5012337055
Bq        -1.5101503532    -0.4687377818     0.1059352472
Bq        -1.5825301185    -0.4441703563     0.6000583201
Bq        -1.4956744002    -0.4736512668     0.0071106326
Bq        -1.5970060715    -0.4392568713     0.6988829347
Bq        -1.4811984472    -0.4785647519    -0.0917139820
Bq        -1.6114820246    -0.4343433862     0.7977075493
Bq        -1.4667224941    -0.4834782370    -0.1905385966
Bq        -1.5391022593    -0.4589108116     0.3035844764
Bq        -1.5528660784    -0.3541181111     0.3975474862
Bq        -1.5239141723    -0.3639450813     0.1998982570
Bq        -1.5673420315    -0.3492046261     0.4963721008
Bq        -1.5094382193    -0.3688585664     0.1010736424
Bq        -1.5818179845    -0.3442911410     0.5951967154
Bq        -1.4949622663    -0.3737720515     0.0022490278
Bq        -1.5962939376    -0.3393776559     0.6940213299
Bq        -1.4804863132    -0.3786855365    -0.0965755867
Bq        -1.6107698906    -0.3344641708     0.7928459445
Bq        -1.4660103602    -0.3835990216    -0.1954002013
Bq        -1.5383901254    -0.3590315962     0.2987228716
Bq        -1.5521539445    -0.2542388958     0.3926858814
Bq        -1.5232020384    -0.2640658659     0.1950366523
Bq        -1.5666298975    -0.2493254107     0.4915104960
Bq        -1.5087260854    -0.2689793510     0.0962120377
Bq        -1.5811058506    -0.2444119256     0.5903351106
Bq        -1.4942501323    -0.2738928361    -0.0026125769
Bq        -1.5955818036    -0.2394984405     0.6891597252
Bq        -1.4797741793    -0.2788063212    -0.1014371915
Bq        -1.6100577567    -0.2345849554     0.7879843398
Bq        -1.4652982262    -0.2837198063    -0.2002618061
Bq        -1.5376779915    -0.2591523808     0.2938612668
Bq        -1.5514418106    -0.1543596804     0.3878242767
Bq        -1.5224899045    -0.1641866505     0.1901750475
Bq        -1.5659177636    -0.1494461953     0.4866488912
Bq        -1.5080139514    -0.1691001356     0.0913504329
Bq        -1.5803937166    -0.1445327102     0.5854735058
Bq        -1.4935379984    -0.1740136207    -0.0074741817
Bq        -1.5948696697    -0.1396192251     0.6842981204
Bq        -1.4790620453    -0.1789271058    -0.1062987963
Bq        -1.6093456227    -0.1347057400     0.7831227350
Bq        -1.4645860923    -0.1838405909    -0.2051234109
Bq        -1.5369658575    -0.1592731655     0.2889996621
Bq        -1.5507296766    -0.0544804650     0.3829626719
Bq        -1.5217777705    -0.0643074352     0.1853134427
Bq        -1.5652056297    -0.0495669799     0.4817872865
Bq        -1.5073018175    -0.0692209203     0.0864888281
Bq        -1.5796815827    -0.0446534948     0.5806119011
Bq        -1.4928258644    -0.0741344053    -0.0123357865
Bq        -1.5941575357    -0.0397400098     0.6794365156
Bq        -1.4783499114    -0.0790478904    -0.1111604010
Bq        -1.6086334888    -0.0348265247     0.7782611302
Bq        -1.4638739583    -0.0839613755    -0.2099850156
Bq        -1.5362537236    -0.0593939501     0.2841380573
Bq        -1.5500175427     0.0453987504     0.3781010671
Bq        -1.5210656366     0.0355717802     0.1804518380
Bq        -1.5644934957     0.0503122355     0.4769256817
Bq        -1.5065896835     0.0306582951     0.0816272234
Bq        -1.5789694488     0.0552257205     0.5757502963
Bq        -1.4921137305     0.0257448100    -0.0171973912
Bq        -1.5934454018     0.0601392056     0.6745749109
Bq        -1.4776377775     0.0208313250    -0.1160220058
Bq        -1.6079213548     0.0650526907     0.7733995255
Bq        -1.4631618244     0.0159178399    -0.2148466204
Bq        -1.5355415896     0.0404852653     0.2792764525
Bq        -1.5493054087     0.1452779658     0.3732394624
Bq        -1.5203535026     0.1354509956     0.1755902332
Bq        -1.5637813618     0.1501914508     0.4720640769
Bq        -1.5058775496     0.1305375105     0.0767656186
Bq        -1.5782573148     0.1551049359     0.5708886915
Bq        -1.4914015966     0.1256240254    -0.0220589960
Bq        -1.5927332679     0.1600184210     0.6697133061
Bq        -1.4769256435     0.1207105403    -0.1208836106
Bq        -1.6072092209     0.1649319061     0.7685379207
Bq        -1.4624496905     0.1157970553    -0.2197082252
Bq        -1.5348294557     0.1403644807     0.2744148478
Bq        -1.5485932748     0.2451571811     0.3683778576
Bq        -1.5196413687     0.2353302110     0.1707286284
Bq        -1.5630692278     0.2500706662     0.4672024722
Bq        -1.5051654157     0.2304167259     0.0719040138
Bq        -1.5775451809     0.2549841513     0.5660270868
Bq        -1.4906894626     0.2255032408    -0.0269206007
Bq        -1.5920211339     0.2598976364     0.6648517013
Bq        -1.4762135096     0.2205897557    -0.1257452153
Bq        -1.6064970870     0.2648111215     0.7636763159
Bq        -1.4617375565     0.2156762706    -0.2245698299
Bq        -1.5341173217     0.2402436960     0.2695532430
Bq        -1.5478811408     0.3450363965     0.3635162528
Bq        -1.5189292348     0.3352094263     0.1658670237
Bq        -1.5623570939     0.3499498816     0.4623408674
Bq        -1.5044532817     0.3302959413     0.0670424091
Bq        -1.5768330469     0.3548633667     0.5611654820
Bq        -1.4899773287     0.3253824562    -0.0317822055
Bq        -1.5913090000     0.3597768518     0.6599900966
Bq        -1.4755013756     0.3204689711    -0.1306068201
Bq        -1.6057849530     0.3646903368     0.7588147112
Bq        -1.4610254226     0.3155554860    -0.2294314347
Bq        -1.5334051878     0.3401229114     0.2646916382
Bq        -1.5471690069     0.4449156119     0.3586546481
Bq        -1.5182171008     0.4350886417     0.1610054189
Bq        -1.5616449599     0.4498290970     0.4574792626
Bq        -1.5037411478     0.4301751566     0.0621808043
Bq        -1.5761209130     0.4547425820     0.5563038772
Bq        -1.4892651947     0.4252616716    -0.0366438103
Bq        -1.5905968660     0.4596560671     0.6551284918
Bq        -1.4747892417     0.4203481865    -0.1354684249
Bq        -1.6050728191     0.4645695522     0.7539531064
Bq        -1.4603132886     0.4154347014    -0.2342930395
Bq        -1.5326930539     0.4400021268     0.2598300335
Bq        -1.5464568730     0.5447948273     0.3537930433
Bq        -1.5175049669     0.5349678571     0.1561438141
Bq        -1.5609328260     0.5497083123     0.4526176579
Bq        -1.5030290138     0.5300543720     0.0573191995
Bq        -1.5754087791     0.5546217974     0.5514422725
Bq        -1.4885530608     0.5251408869    -0.0415054150
Bq        -1.5898847321     0.5595352825     0.6502668870
Bq        -1.4740771077     0.5202274018    -0.1403300296
Bq        -1.6043606851     0.5644487676     0.7490915016
Bq        -1.4596011547     0.5153139168    -0.2391546442
Bq        -1.5319809199     0.5398813422     0.2549684287
Bq        -1.5457447390     0.6446740426     0.3489314385
Bq        -1.5167928329     0.6348470725     0.1512822094
Bq        -1.5602206921     0.6495875277     0.4477560531
Bq        -1.5023168799     0.6299335874     0.0524575948
Bq        -1.5746966451     0.6545010128     0.5465806677
Bq        -1.4878409268     0.6250201023    -0.0463670198
Bq        -1.5891725982     0.6594144979     0.6454052823
Bq        -1.4733649738     0.6201066172    -0.1451916344
Bq        -1.6036485512     0.6643279830     0.7442298969
Bq        -1.4588890208     0.6151931321    -0.2440162490
Bq        -1.5312687860     0.6397605576     0.2501068239
Bq        -1.5450326051     0.7445532580     0.3440698338
Bq        -1.5160806990     0.7347262878     0.1464206046
Bq        -1.5595085581     0.7494667431     0.4428944483
Bq        -1.5016047459     0.7298128028     0.0475959900
Bq        -1.5739845112     0.7543802282     0.5417190629
Bq        -1.4871287929     0.7248993177    -0.0512286246
Bq        -1.5884604642     0.7592937133     0.6405436775
Bq        -1.4726528399     0.7199858326    -0.1500532392
Bq        -1.6029364173     0.7642071983     0.7393682921
Bq        -1.4581768868     0.7150723475    -0.2488778538
Bq        -1.5305566520     0.7396397729     0.2452452192
Bq        -1.5443204711     0.8444324734     0.3392082290
Bq        -1.5153685650     0.8346055032     0.1415589998
Bq        -1.5587964242     0.8493459585     0.4380328436
Bq        -1.5008926120     0.8296920181     0.0427343852
Bq        -1.5732723772     0.8542594436     0.5368574582
Bq        -1.4864166590     0.8247785331    -0.0560902293
Bq        -1.5877483303     0.8591729286     0.6356820727
Bq        -1.4719407059     0.8198650480    -0.1549148439
Bq        -1.6022242833     0.8640864137     0.7345066873
Bq        -1.4574647529     0.8149515629    -0.2537394585
Bq        -1.5298445181     0.8395189883     0.2403836144
Bq        -1.5436083372     0.9443116888     0.3343466242
Bq        -1.5146564311     0.9344847186     0.1366973951
Bq        -1.5580842902     0.9492251739     0.4331712388
Bq        -1.5001804781     0.9295712335     0.0378727805
Bq        -1.5725602433     0.9541386589     0.5319958534
Bq        -1.4857045250     0.9246577484    -0.0609518341
Bq        -1.5870361963     0.9590521440     0.6308204680
Bq        -1.4712285720     0.9197442634    -0.1597764487
Bq        -1.6015121494     0.9639656291     0.7296450826
Bq        -1.4567526189     0.9148307783    -0.2586010633
Bq        -1.5291323842     0.9393982037     0.2355220096
Bq        -1.5428962033     1.0441909041     0.3294850195
Bq        -1.5139442972     1.0343639340     0.1318357903
Bq        -1.5573721563     1.0491043892     0.4283096340
Bq        -1.4994683441     1.0294504489     0.0330111757
Bq        -1.5718481093     1.0540178743     0.5271342486
Bq        -1.4849923911     1.0245369638    -0.0658134389
Bq        -1.5863240624     1.0589313594     0.6259588632
Bq        -1.4705164380     1.0196234787    -0.1646380535
Bq        -1.6008000154     1.0638448445     0.7247834778
Bq        -1.4560404850     1.0147099936    -0.2634626681
Bq        -1.5284202502     1.0392774191     0.2306604049
Bq        -1.5421840693     1.1440701195     0.3246234147

1
2
3
4
5
6
7
8
9
10
11
12
13
14
15
16
17
18
19
20
21
22
23
24
25
26
27
28
29
30
31
32
33
34
35
36
37
38
39
40
41
42
43
44
45
46
47
48
49
50
51
52
53
54
55
56
57
58
59
60
61
62
63
64
65
66
67
68
69
70
71
72
73
74
75
76
77
78
79
80
81
82
83
84
85
86
87
88
89
90
91
92
93
94
95
96
97
98
99
100
101
102
103
104
105
106
107
108
109
110
111
112
113
114
115
116
117
118
119
120
121
122
123
124
125
126
127
128
129
130
131
132
133
134
135
136
137
138
139
140
141
142
143
144
145
146
147
148
149
150
151
152
153
154
155
156
157
158
159
160
161
162
163
164
165
166
167
168
169
170
171
172
173
174
175
176
177
178
179
180
181
182
183
184
185
186
187
188
189
190
191
192
193
194
195
196
197
198
199
200
201
202
203
204
205
206
207
208
209
210
211
212
213
214
215
216
217
218
219
220
221
222
223
224
225
226
227
228
229
230
231
232
233
234
235
236

