%nproc=8
%mem=1000MB
# rb3lyp/6-311+g** NMR geom=connectivity

Title

0 1
C    -4.0500558   -0.5771862    0.8136712
H    -5.0263804   -1.0082727    1.0024760
C    -3.9381552    0.6617804    0.2400876
H    -4.8252424    1.2338890   -0.0111295
C    -2.6768410    1.2433246    0.0057578
C    -1.4974121    0.5051527    0.2848253
C    -1.6508332   -0.7338728    0.9404026
H    -0.7713646   -1.2730967    1.2633753
C    -2.8898548   -1.2624035    1.1994307
H    -2.9683706   -2.2124563    1.7152676
C    -2.5773185    2.5963696   -0.4192930
H    -3.4870728    3.1412239   -0.6474055
C    -1.3741895    3.2147896   -0.4364030
H    -1.2997315    4.2742019   -0.6578144
C    -0.1719488    2.4994090   -0.1734588
C    -0.2043917    1.1018437    0.0192689
C     1.0513491    3.2042560   -0.0676222
H     1.0427344    4.2819499   -0.1896997
C     2.1942091    2.5487446    0.2579577
H     3.1168527    3.0912848    0.4334727
C     2.2216473    1.1336562    0.2934990
C     1.0486931    0.3945528    0.0302412
C     3.4483363    0.4614633    0.5573939
H     4.3095794    1.0606054    0.8334846
C     3.5427346   -0.8855926    0.4749463
H     4.4731467   -1.3939704    0.7038822
C     2.4490052   -1.6474447   -0.0196319
C     1.2150704   -1.0057258   -0.3013573
C     0.2531113   -1.7434440   -1.0216591
H    -0.6541356   -1.2535051   -1.3462847
C     0.4494193   -3.0628597   -1.3413779
H    -0.3083162   -3.5944309   -1.9054060
C     1.6251726   -3.7207967   -0.9552541
H     1.7670048   -4.7687404   -1.1927019
C     2.6109872   -3.0144177   -0.3183050
H     3.5525612   -3.4902813   -0.0646367
Bq         2.7685232273    -4.4864270530    -0.6964884085
Bq         2.5692144083    -4.6195053085    -0.2576647850
Bq         2.5183461712    -4.5497279769    -0.1456668098
Bq         2.5980696988    -4.4964966747    -0.3211962592
Bq         2.4784844074    -4.5763436280    -0.0579020851
Bq         2.6379314625    -4.4698810236    -0.4089609839
Bq         2.4386226436    -4.6029592791     0.0298626396
Bq         2.6777932263    -4.4432653725    -0.4967257087
Bq         2.3987608798    -4.6295749303     0.1176273643
Bq         2.7176549901    -4.4166497214    -0.5844904334
Bq         2.3588991160    -4.6561905814     0.2053920890
Bq         2.7575167539    -4.3900340703    -0.6722551581
Bq         2.5582079350    -4.5231123258    -0.2334315345
Bq         2.5073396978    -4.4533349942    -0.1214335593
Bq         2.5870632254    -4.4001036920    -0.2969630088
Bq         2.4674779340    -4.4799506453    -0.0336688346
Bq         2.6269249892    -4.3734880409    -0.3847277335
Bq         2.4276161702    -4.5065662964     0.0540958901
Bq         2.6667867530    -4.3468723898    -0.4724924582
Bq         2.3877544064    -4.5331819475     0.1418606148
Bq         2.7066485167    -4.3202567387    -0.5602571829
Bq         2.3478926427    -4.5597975986     0.2296253395
Bq         2.7465102805    -4.2936410876    -0.6480219076
Bq         2.5472014616    -4.4267193431    -0.2091982841
Bq         2.4963332244    -4.3569420115    -0.0972003089
Bq         2.5760567520    -4.3037107093    -0.2727297583
Bq         2.4564714607    -4.3835576626    -0.0094355842
Bq         2.6159185158    -4.2770950582    -0.3604944830
Bq         2.4166096969    -4.4101733137     0.0783291405
Bq         2.6557802796    -4.2504794071    -0.4482592077
Bq         2.3767479331    -4.4367889648     0.1660938653
Bq         2.6956420434    -4.2238637560    -0.5360239324
Bq         2.3368861693    -4.4634046159     0.2538585900
Bq         2.7355038072    -4.1972481049    -0.6237886572
Bq         2.5361949882    -4.3303263604    -0.1849650336
Bq         2.4853267511    -4.2605490288    -0.0729670584
Bq         2.5650502786    -4.2073177266    -0.2484965079
Bq         2.4454649873    -4.2871646799     0.0147976663
Bq         2.6049120424    -4.1807020755    -0.3362612326
Bq         2.4056032235    -4.3137803310     0.1025623910
Bq         2.6447738062    -4.1540864244    -0.4240259573
Bq         2.3657414597    -4.3403959821     0.1903271157
Bq         2.6846355700    -4.1274707733    -0.5117906820
Bq         2.3258796959    -4.3670116332     0.2780918404
Bq         2.7244973338    -4.1008551222    -0.5995554067
Bq         2.5251885149    -4.2339333777    -0.1607317831
Bq         2.4743202777    -4.1641560461    -0.0487338080
Bq         2.5540438053    -4.1109247439    -0.2242632574
Bq         2.4344585139    -4.1907716972     0.0390309167
Bq         2.5939055691    -4.0843090928    -0.3120279821
Bq         2.3945967501    -4.2173873483     0.1267956415
Bq         2.6337673328    -4.0576934417    -0.3997927068
Bq         2.3547349863    -4.2440029994     0.2145603662
Bq         2.6736290966    -4.0310777905    -0.4875574315
Bq         2.3148732225    -4.2706186505     0.3023250909
Bq         2.7134908604    -4.0044621394    -0.5753221562
Bq         2.5141820415    -4.1375403950    -0.1364985327
Bq         2.4633138043    -4.0677630634    -0.0245005575
Bq         2.5430373319    -4.0145317612    -0.2000300069
Bq         2.4234520405    -4.0943787145     0.0632641672
Bq         2.5828990957    -3.9879161100    -0.2877947316
Bq         2.3835902767    -4.1209943656     0.1510288919
Bq         2.6227608595    -3.9613004589    -0.3755594564
Bq         2.3437285130    -4.1476100167     0.2387936166
Bq         2.6626226233    -3.9346848078    -0.4633241811
Bq         2.3038667492    -4.1742256678     0.3265583413
Bq         2.7024843870    -3.9080691567    -0.5510889058
Bq         2.5031755681    -4.0411474123    -0.1122652822
Bq         2.4523073310    -3.9713700807    -0.0002673071
Bq         2.5320308585    -3.9181387784    -0.1757967565
Bq         2.4124455672    -3.9979857318     0.0874974177
Bq         2.5718926223    -3.8915231273    -0.2635614812
Bq         2.3725838034    -4.0246013829     0.1752621424
Bq         2.6117543861    -3.8649074762    -0.3513262059
Bq         2.3327220396    -4.0512170340     0.2630268671
Bq         2.6516161499    -3.8382918251    -0.4390909306
Bq         2.2928602758    -4.0778326851     0.3507915918
Bq         2.6914779137    -3.8116761740    -0.5268556553
Bq         2.4921690947    -3.9447544296    -0.0880320318
Bq         2.4413008576    -3.8749770979     0.0239659434
Bq         2.5210243852    -3.8217457957    -0.1515635060
Bq         2.4014390938    -3.9015927491     0.1117306681
Bq         2.5608861489    -3.7951301446    -0.2393282307
Bq         2.3615773300    -3.9282084002     0.1994953928
Bq         2.6007479127    -3.7685144935    -0.3270929554
Bq         2.3217155662    -3.9548240513     0.2872601175
Bq         2.6406096765    -3.7418988424    -0.4148576802
Bq         2.2818538024    -3.9814397024     0.3750248423
Bq         2.6804714403    -3.7152831913    -0.5026224049
Bq         2.4811626214    -3.8483614468    -0.0637987813
Bq         2.4302943842    -3.7785841152     0.0481991939
Bq         2.5100179118    -3.7253528130    -0.1273302556
Bq         2.3904326204    -3.8051997663     0.1359639186
Bq         2.5498796756    -3.6987371619    -0.2150949803
Bq         2.3505708566    -3.8318154174     0.2237286433
Bq         2.5897414394    -3.6721215108    -0.3028597050
Bq         2.3107090928    -3.8584310686     0.3114933680
Bq         2.6296032031    -3.6455058597    -0.3906244297
Bq         2.2708473291    -3.8850467197     0.3992580927
Bq         2.6694649669    -3.6188902086    -0.4783891544
Bq         2.4701561480    -3.7519684641    -0.0395655309
Bq         2.4192879108    -3.6821911325     0.0724324443
Bq         2.4990114384    -3.6289598303    -0.1030970051
Bq         2.3794261470    -3.7088067836     0.1601971690
Bq         2.5388732022    -3.6023441792    -0.1908617298
Bq         2.3395643833    -3.7354224347     0.2479618937
Bq         2.5787349660    -3.5757285281    -0.2786264545
Bq         2.2997026195    -3.7620380858     0.3357266185
Bq         2.6185967298    -3.5491128770    -0.3663911792
Bq         2.2598408557    -3.7886537369     0.4234913432
Bq         2.6584584936    -3.5224972259    -0.4541559040
Bq         2.4591496746    -3.6555754814    -0.0153322804
Bq         2.4082814375    -3.5857981498     0.0966656948
Bq         2.4880049650    -3.5325668476    -0.0788637546
Bq         2.3684196737    -3.6124138009     0.1844304195
Bq         2.5278667288    -3.5059511965    -0.1666284794
Bq         2.3285579099    -3.6390294520     0.2721951442
Bq         2.5677284926    -3.4793355454    -0.2543932041
Bq         2.2886961461    -3.6656451031     0.3599598689
Bq         2.6075902564    -3.4527198943    -0.3421579288
Bq         2.2488343823    -3.6922607542     0.4477245936
Bq         2.6474520202    -3.4261042432    -0.4299226535
Bq         2.4481432013    -3.5591824987     0.0089009701
Bq         2.3972749641    -3.4894051671     0.1208989452
Bq         2.4769984917    -3.4361738649    -0.0546305042
Bq         2.3574132003    -3.5160208182     0.2086636699
Bq         2.5168602555    -3.4095582138    -0.1423952289
Bq         2.3175514365    -3.5426364693     0.2964283947
Bq         2.5567220192    -3.3829425627    -0.2301599536
Bq         2.2776896727    -3.5692521204     0.3841931194
Bq         2.5965837830    -3.3563269116    -0.3179246783
Bq         2.2378279089    -3.5958677715     0.4719578441
Bq         2.6364455468    -3.3297112605    -0.4056894030
Bq         2.4371367279    -3.4627895160     0.0331342205
Bq         2.3862684907    -3.3930121844     0.1451321957
Bq         2.4659920183    -3.3397808822    -0.0303972537
Bq         2.3464067269    -3.4196278355     0.2328969204
Bq         2.5058537821    -3.3131652311    -0.1181619784
Bq         2.3065449631    -3.4462434866     0.3206616451
Bq         2.5457155459    -3.2865495800    -0.2059267032
Bq         2.2666831994    -3.4728591377     0.4084263698
Bq         2.5855773097    -3.2599339288    -0.2936914279
Bq         2.2268214356    -3.4994747888     0.4961910945
Bq         2.6254390734    -3.2333182777    -0.3814561526
Bq         2.4261302545    -3.3663965333     0.0573674710
Bq         2.3752620173    -3.2966192017     0.1693654462
Bq         2.4549855449    -3.2433878995    -0.0061640033
Bq         2.3354002536    -3.3232348528     0.2571301709
Bq         2.4948473087    -3.2167722484    -0.0939287280
Bq         2.2955384898    -3.3498505039     0.3448948956
Bq         2.5347090725    -3.1901565972    -0.1816934527
Bq         2.2556767260    -3.3764661550     0.4326596203
Bq         2.5745708363    -3.1635409461    -0.2694581774
Bq         2.2158149622    -3.4030818061     0.5204243450
Bq         2.6144326001    -3.1369252950    -0.3572229021
Bq         2.4151237811    -3.2700035506     0.0816007214
Bq         2.3642555440    -3.2002262190     0.1935986966
Bq         2.4439790716    -3.1469949167     0.0180692472
Bq         2.3243937802    -3.2268418701     0.2813634213
Bq         2.4838408353    -3.1203792656    -0.0696954775
Bq         2.2845320164    -3.2534575212     0.3691281460
Bq         2.5237025991    -3.0937636145    -0.1574602022
Bq         2.2446702526    -3.2800731723     0.4568928707
Bq         2.5635643629    -3.0671479634    -0.2452249270
Bq         2.2048084888    -3.3066888234     0.5446575955
Bq         2.6034261267    -3.0405323123    -0.3329896517
Bq         2.4041173078    -3.1736105679     0.1058339719
Bq         2.3532490706    -3.1038332362     0.2178319471
Bq         2.4329725982    -3.0506019340     0.0423024976
Bq         2.3133873068    -3.1304488874     0.3055966718
Bq         2.4728343620    -3.0239862829    -0.0454622271
Bq         2.2735255430    -3.1570645385     0.3933613965
Bq         2.5126961258    -2.9973706318    -0.1332269518
Bq         2.2336637792    -3.1836801896     0.4811261212
Bq         2.5525578895    -2.9707549807    -0.2209916765
Bq         2.1938020155    -3.2102958407     0.5688908459
Bq         2.5924196533    -2.9441393296    -0.3087564012
Bq         2.3931108344    -3.0772175851     0.1300672224
Bq         2.3422425972    -3.0074402535     0.2420651975
Bq         2.4219661248    -2.9542089513     0.0665357481
Bq         2.3023808334    -3.0340559046     0.3298299222
Bq         2.4618278886    -2.9275933002    -0.0212289766
Bq         2.2625190697    -3.0606715558     0.4175946470
Bq         2.5016896524    -2.9009776491    -0.1089937013
Bq         2.2226573059    -3.0872872069     0.5053593717
Bq         2.5415514162    -2.8743619980    -0.1967584260
Bq         2.1827955421    -3.1139028580     0.5931240964
Bq         2.5814131800    -2.8477463469    -0.2845231507
Bq         2.3821043610    -2.9808246024     0.1543004728
Bq         2.3312361239    -2.9110472708     0.2662984480
Bq         2.4109596514    -2.8578159686     0.0907689986
Bq         2.2913743601    -2.9376629219     0.3540631727
Bq         2.4508214152    -2.8312003175     0.0030042738
Bq         2.2515125963    -2.9642785730     0.4418278974
Bq         2.4906831790    -2.8045846664    -0.0847604509
Bq         2.2116508325    -2.9908942241     0.5295926221
Bq         2.5305449428    -2.7779690153    -0.1725251756
Bq         2.1717890687    -3.0175098753     0.6173573468
Bq         2.5704067066    -2.7513533642    -0.2602899003
Bq         2.3710978876    -2.8844316197     0.1785337233

1
2
3
4
5
6
7
8
9
10
11
12
13
14
15
16
17
18
19
20
21
22
23
24
25
26
27
28
29
30
31
32
33
34
35
36
37
38
39
40
41
42
43
44
45
46
47
48
49
50
51
52
53
54
55
56
57
58
59
60
61
62
63
64
65
66
67
68
69
70
71
72
73
74
75
76
77
78
79
80
81
82
83
84
85
86
87
88
89
90
91
92
93
94
95
96
97
98
99
100
101
102
103
104
105
106
107
108
109
110
111
112
113
114
115
116
117
118
119
120
121
122
123
124
125
126
127
128
129
130
131
132
133
134
135
136
137
138
139
140
141
142
143
144
145
146
147
148
149
150
151
152
153
154
155
156
157
158
159
160
161
162
163
164
165
166
167
168
169
170
171
172
173
174
175
176
177
178
179
180
181
182
183
184
185
186
187
188
189
190
191
192
193
194
195
196
197
198
199
200
201
202
203
204
205
206
207
208
209
210
211
212
213
214
215
216
217
218
219
220
221
222
223
224
225
226
227
228
229
230
231
232
233
234
235
236

