%nproc=8
%mem=1000MB
# rb3lyp/6-311+g** NMR geom=connectivity

Title

0 1
C    -4.0500558   -0.5771862    0.8136712
H    -5.0263804   -1.0082727    1.0024760
C    -3.9381552    0.6617804    0.2400876
H    -4.8252424    1.2338890   -0.0111295
C    -2.6768410    1.2433246    0.0057578
C    -1.4974121    0.5051527    0.2848253
C    -1.6508332   -0.7338728    0.9404026
H    -0.7713646   -1.2730967    1.2633753
C    -2.8898548   -1.2624035    1.1994307
H    -2.9683706   -2.2124563    1.7152676
C    -2.5773185    2.5963696   -0.4192930
H    -3.4870728    3.1412239   -0.6474055
C    -1.3741895    3.2147896   -0.4364030
H    -1.2997315    4.2742019   -0.6578144
C    -0.1719488    2.4994090   -0.1734588
C    -0.2043917    1.1018437    0.0192689
C     1.0513491    3.2042560   -0.0676222
H     1.0427344    4.2819499   -0.1896997
C     2.1942091    2.5487446    0.2579577
H     3.1168527    3.0912848    0.4334727
C     2.2216473    1.1336562    0.2934990
C     1.0486931    0.3945528    0.0302412
C     3.4483363    0.4614633    0.5573939
H     4.3095794    1.0606054    0.8334846
C     3.5427346   -0.8855926    0.4749463
H     4.4731467   -1.3939704    0.7038822
C     2.4490052   -1.6474447   -0.0196319
C     1.2150704   -1.0057258   -0.3013573
C     0.2531113   -1.7434440   -1.0216591
H    -0.6541356   -1.2535051   -1.3462847
C     0.4494193   -3.0628597   -1.3413779
H    -0.3083162   -3.5944309   -1.9054060
C     1.6251726   -3.7207967   -0.9552541
H     1.7670048   -4.7687404   -1.1927019
C     2.6109872   -3.0144177   -0.3183050
H     3.5525612   -3.4902813   -0.0646367
Bq        -1.3521292949     0.0453987504     0.4070879849
Bq        -1.3231773888     0.0355717802     0.2094387558
Bq        -1.3666052480     0.0503122355     0.5059125995
Bq        -1.3087014358     0.0306582951     0.1106141412
Bq        -1.3810812010     0.0552257205     0.6047372141
Bq        -1.2942254828     0.0257448100     0.0117895266
Bq        -1.3955571541     0.0601392056     0.7035618287
Bq        -1.2797495297     0.0208313250    -0.0870350880
Bq        -1.4100331071     0.0650526907     0.8023864433
Bq        -1.2652735767     0.0159178399    -0.1858597026
Bq        -1.3376533419     0.0404852653     0.3082633704
Bq        -1.3514171610     0.1452779658     0.4022263802
Bq        -1.3224652549     0.1354509956     0.2045771510
Bq        -1.3658931140     0.1501914508     0.5010509948
Bq        -1.3079893019     0.1305375105     0.1057525364
Bq        -1.3803690671     0.1551049359     0.5998756094
Bq        -1.2935133488     0.1256240254     0.0069279218
Bq        -1.3948450201     0.1600184210     0.6987002239
Bq        -1.2790373958     0.1207105403    -0.0918966927
Bq        -1.4093209732     0.1649319061     0.7975248385
Bq        -1.2645614427     0.1157970553    -0.1907213073
Bq        -1.3369412079     0.1403644807     0.3034017656
Bq        -1.3507050270     0.2451571811     0.3973647754
Bq        -1.3217531210     0.2353302110     0.1997155462
Bq        -1.3651809801     0.2500706662     0.4961893900
Bq        -1.3072771679     0.2304167259     0.1008909317
Bq        -1.3796569331     0.2549841513     0.5950140046
Bq        -1.2928012149     0.2255032408     0.0020663171
Bq        -1.3941328862     0.2598976364     0.6938386192
Bq        -1.2783252618     0.2205897557    -0.0967582975
Bq        -1.4086088392     0.2648111215     0.7926632338
Bq        -1.2638493088     0.2156762706    -0.1955829121
Bq        -1.3362290740     0.2402436960     0.2985401608
Bq        -1.3499928931     0.3450363965     0.3925031707
Bq        -1.3210409870     0.3352094263     0.1948539415
Bq        -1.3644688461     0.3499498816     0.4913277852
Bq        -1.3065650340     0.3302959413     0.0960293269
Bq        -1.3789447992     0.3548633667     0.5901523998
Bq        -1.2920890809     0.3253824562    -0.0027952877
Bq        -1.3934207522     0.3597768518     0.6889770144
Bq        -1.2776131279     0.3204689711    -0.1016199023
Bq        -1.4078967053     0.3646903368     0.7878016290
Bq        -1.2631371748     0.3155554860    -0.2004445169
Bq        -1.3355169401     0.3401229114     0.2936785561
Bq        -1.3492807592     0.4449156119     0.3876415659
Bq        -1.3203288531     0.4350886417     0.1899923367
Bq        -1.3637567122     0.4498290970     0.4864661805
Bq        -1.3058529000     0.4301751566     0.0911677221
Bq        -1.3782326653     0.4547425820     0.5852907951
Bq        -1.2913769470     0.4252616716    -0.0076568925
Bq        -1.3927086183     0.4596560671     0.6841154096
Bq        -1.2769009939     0.4203481865    -0.1064815070
Bq        -1.4071845713     0.4645695522     0.7829400242
Bq        -1.2624250409     0.4154347014    -0.2053061216
Bq        -1.3348048061     0.4400021268     0.2888169513
Bq        -1.3485686252     0.5447948273     0.3827799611
Bq        -1.3196167191     0.5349678571     0.1851307319
Bq        -1.3630445783     0.5497083123     0.4816045757
Bq        -1.3051407661     0.5300543720     0.0863061174
Bq        -1.3775205313     0.5546217974     0.5804291903
Bq        -1.2906648130     0.5251408869    -0.0125184972
Bq        -1.3919964844     0.5595352825     0.6792538049
Bq        -1.2761888600     0.5202274018    -0.1113431118
Bq        -1.4064724374     0.5644487676     0.7780784195
Bq        -1.2617129070     0.5153139168    -0.2101677264
Bq        -1.3340926722     0.5398813422     0.2839553465
Bq        -1.3478564913     0.6446740426     0.3779183564
Bq        -1.3189045852     0.6348470725     0.1802691272
Bq        -1.3623324443     0.6495875277     0.4767429709
Bq        -1.3044286321     0.6299335874     0.0814445126
Bq        -1.3768083974     0.6545010128     0.5755675855
Bq        -1.2899526791     0.6250201023    -0.0173801020
Bq        -1.3912843504     0.6594144979     0.6743922001
Bq        -1.2754767261     0.6201066172    -0.1162047166
Bq        -1.4057603035     0.6643279830     0.7732168147
Bq        -1.2610007730     0.6151931321    -0.2150293312
Bq        -1.3333805382     0.6397605576     0.2790937418
Bq        -1.3471443573     0.7445532580     0.3730567516
Bq        -1.3181924512     0.7347262878     0.1754075224
Bq        -1.3616203104     0.7494667431     0.4718813662
Bq        -1.3037164982     0.7298128028     0.0765829078
Bq        -1.3760962634     0.7543802282     0.5707059808
Bq        -1.2892405452     0.7248993177    -0.0222417068
Bq        -1.3905722165     0.7592937133     0.6695305953
Bq        -1.2747645921     0.7199858326    -0.1210663213
Bq        -1.4050481695     0.7642071983     0.7683552099
Bq        -1.2602886391     0.7150723475    -0.2198909359
Bq        -1.3326684043     0.7396397729     0.2742321370
Bq        -1.3464322234     0.8444324734     0.3681951468
Bq        -1.3174803173     0.8346055032     0.1705459176
Bq        -1.3609081764     0.8493459585     0.4670197614
Bq        -1.3030043643     0.8296920181     0.0717213031
Bq        -1.3753841295     0.8542594436     0.5658443760
Bq        -1.2885284112     0.8247785331    -0.0271033115
Bq        -1.3898600825     0.8591729286     0.6646689906
Bq        -1.2740524582     0.8198650480    -0.1259279261
Bq        -1.4043360356     0.8640864137     0.7634936052
Bq        -1.2595765051     0.8149515629    -0.2247525407
Bq        -1.3319562704     0.8395189883     0.2693705322
Bq        -1.3457200895     0.9443116888     0.3633335421
Bq        -1.3167681834     0.9344847186     0.1656843129
Bq        -1.3601960425     0.9492251739     0.4621581566
Bq        -1.3022922303     0.9295712335     0.0668596983
Bq        -1.3746719955     0.9541386589     0.5609827712
Bq        -1.2878162773     0.9246577484    -0.0319649163
Bq        -1.3891479486     0.9590521440     0.6598073858
Bq        -1.2733403242     0.9197442634    -0.1307895309
Bq        -1.4036239016     0.9639656291     0.7586320004
Bq        -1.2588643712     0.9148307783    -0.2296141455
Bq        -1.3312441364     0.9393982037     0.2645089275
Bq        -1.3450079555     1.0441909041     0.3584719373
Bq        -1.3160560494     1.0343639340     0.1608227081
Bq        -1.3594839086     1.0491043892     0.4572965519
Bq        -1.3015800964     1.0294504489     0.0619980935
Bq        -1.3739598616     1.0540178743     0.5561211665
Bq        -1.2871041433     1.0245369638    -0.0368265211
Bq        -1.3884358146     1.0589313594     0.6549457810
Bq        -1.2726281903     1.0196234787    -0.1356511356
Bq        -1.4029117677     1.0638448445     0.7537703956
Bq        -1.2581522372     1.0147099936    -0.2344757502
Bq        -1.3305320025     1.0392774191     0.2596473227
Bq        -1.3442958216     1.1440701195     0.3536103325
Bq        -1.3153439155     1.1342431494     0.1559611033
Bq        -1.3587717746     1.1489836046     0.4524349471
Bq        -1.3008679624     1.1293296643     0.0571364888
Bq        -1.3732477277     1.1538970897     0.5512595617
Bq        -1.2863920094     1.1244161792    -0.0416881258
Bq        -1.3877236807     1.1588105748     0.6500841763
Bq        -1.2719160563     1.1195026941    -0.1405127404
Bq        -1.4021996337     1.1637240599     0.7489087909
Bq        -1.2574401033     1.1145892090    -0.2393373550
Bq        -1.3298198685     1.1391566344     0.2547857179
Bq        -1.3435836876     1.2439493349     0.3487487278
Bq        -1.3146317815     1.2341223647     0.1510994986
Bq        -1.3580596407     1.2488628200     0.4475733423
Bq        -1.3001558285     1.2292088797     0.0522748840
Bq        -1.3725355937     1.2537763051     0.5463979569
Bq        -1.2856798755     1.2242953946    -0.0465497306
Bq        -1.3870115468     1.2586897901     0.6452225715
Bq        -1.2712039224     1.2193819095    -0.1453743452
Bq        -1.4014874998     1.2636032752     0.7440471861
Bq        -1.2567279694     1.2144684244    -0.2441989598
Bq        -1.3291077346     1.2390358498     0.2499241132
Bq        -1.3428715537     1.3438285503     0.3438871230
Bq        -1.3139196476     1.3340015801     0.1462378938
Bq        -1.3573475067     1.3487420354     0.4427117376
Bq        -1.2994436946     1.3290880950     0.0474132792
Bq        -1.3718234598     1.3536555204     0.5415363522
Bq        -1.2849677415     1.3241746099    -0.0514113354
Bq        -1.3862994128     1.3585690055     0.6403609667
Bq        -1.2704917885     1.3192611249    -0.1502359499
Bq        -1.4007753659     1.3634824906     0.7391855813
Bq        -1.2560158354     1.3143476398    -0.2490605645
Bq        -1.3283956006     1.3389150652     0.2450625084
Bq        -1.3421594197     1.4437077657     0.3390255182
Bq        -1.3132075137     1.4338807955     0.1413762890
Bq        -1.3566353728     1.4486212507     0.4378501328
Bq        -1.2987315606     1.4289673104     0.0425516745
Bq        -1.3711113258     1.4535347358     0.5366747474
Bq        -1.2842556076     1.4240538253    -0.0562729401
Bq        -1.3855872789     1.4584482209     0.6354993620
Bq        -1.2697796545     1.4191403402    -0.1550975547
Bq        -1.4000632319     1.4633617060     0.7343239766
Bq        -1.2553037015     1.4142268552    -0.2539221693
Bq        -1.3276834667     1.4387942806     0.2402009036
Bq        -1.3414472858     1.5435869810     0.3341639135
Bq        -1.3124953797     1.5337600109     0.1365146843
Bq        -1.3559232388     1.5485004661     0.4329885280
Bq        -1.2980194267     1.5288465258     0.0376900697
Bq        -1.3703991919     1.5534139512     0.5318131426
Bq        -1.2835434736     1.5239330407    -0.0611345449
Bq        -1.3848751449     1.5583274363     0.6306377572
Bq        -1.2690675206     1.5190195556    -0.1599591595
Bq        -1.3993510980     1.5632409214     0.7294623718
Bq        -1.2545915675     1.5141060705    -0.2587837741
Bq        -1.3269713328     1.5386734959     0.2353392989
Bq        -1.3407351519     1.6434661964     0.3293023087
Bq        -1.3117832458     1.6336392262     0.1316530795
Bq        -1.3552111049     1.6483796815     0.4281269233
Bq        -1.2973072927     1.6287257412     0.0328284649
Bq        -1.3696870579     1.6532931666     0.5269515379
Bq        -1.2828313397     1.6238122561    -0.0659961497
Bq        -1.3841630110     1.6582066517     0.6257761524
Bq        -1.2683553866     1.6188987710    -0.1648207642
Bq        -1.3986389640     1.6631201367     0.7246007670
Bq        -1.2538794336     1.6139852859    -0.2636453788
Bq        -1.3262591988     1.6385527113     0.2304776941
Bq        -1.3400230179     1.7433454118     0.3244407039
Bq        -1.3110711118     1.7335184416     0.1267914748
Bq        -1.3544989710     1.7482588969     0.4232653185
Bq        -1.2965951588     1.7286049565     0.0279668602
Bq        -1.3689749240     1.7531723819     0.5220899331
Bq        -1.2821192057     1.7236914715    -0.0708577544
Bq        -1.3834508771     1.7580858670     0.6209145477
Bq        -1.2676432527     1.7187779864    -0.1696823690
Bq        -1.3979268301     1.7629993521     0.7197391623
Bq        -1.2531672997     1.7138645013    -0.2685069836
Bq        -1.3255470649     1.7384319267     0.2256160893
Bq        -1.3393108840     1.8432246272     0.3195790992
Bq        -1.3103589779     1.8333976570     0.1219298700

1
2
3
4
5
6
7
8
9
10
11
12
13
14
15
16
17
18
19
20
21
22
23
24
25
26
27
28
29
30
31
32
33
34
35
36
37
38
39
40
41
42
43
44
45
46
47
48
49
50
51
52
53
54
55
56
57
58
59
60
61
62
63
64
65
66
67
68
69
70
71
72
73
74
75
76
77
78
79
80
81
82
83
84
85
86
87
88
89
90
91
92
93
94
95
96
97
98
99
100
101
102
103
104
105
106
107
108
109
110
111
112
113
114
115
116
117
118
119
120
121
122
123
124
125
126
127
128
129
130
131
132
133
134
135
136
137
138
139
140
141
142
143
144
145
146
147
148
149
150
151
152
153
154
155
156
157
158
159
160
161
162
163
164
165
166
167
168
169
170
171
172
173
174
175
176
177
178
179
180
181
182
183
184
185
186
187
188
189
190
191
192
193
194
195
196
197
198
199
200
201
202
203
204
205
206
207
208
209
210
211
212
213
214
215
216
217
218
219
220
221
222
223
224
225
226
227
228
229
230
231
232
233
234
235
236

