%nproc=8
%mem=1000MB
# rb3lyp/6-311+g** NMR geom=connectivity

Title

0 1
C    -4.0500558   -0.5771862    0.8136712
H    -5.0263804   -1.0082727    1.0024760
C    -3.9381552    0.6617804    0.2400876
H    -4.8252424    1.2338890   -0.0111295
C    -2.6768410    1.2433246    0.0057578
C    -1.4974121    0.5051527    0.2848253
C    -1.6508332   -0.7338728    0.9404026
H    -0.7713646   -1.2730967    1.2633753
C    -2.8898548   -1.2624035    1.1994307
H    -2.9683706   -2.2124563    1.7152676
C    -2.5773185    2.5963696   -0.4192930
H    -3.4870728    3.1412239   -0.6474055
C    -1.3741895    3.2147896   -0.4364030
H    -1.2997315    4.2742019   -0.6578144
C    -0.1719488    2.4994090   -0.1734588
C    -0.2043917    1.1018437    0.0192689
C     1.0513491    3.2042560   -0.0676222
H     1.0427344    4.2819499   -0.1896997
C     2.1942091    2.5487446    0.2579577
H     3.1168527    3.0912848    0.4334727
C     2.2216473    1.1336562    0.2934990
C     1.0486931    0.3945528    0.0302412
C     3.4483363    0.4614633    0.5573939
H     4.3095794    1.0606054    0.8334846
C     3.5427346   -0.8855926    0.4749463
H     4.4731467   -1.3939704    0.7038822
C     2.4490052   -1.6474447   -0.0196319
C     1.2150704   -1.0057258   -0.3013573
C     0.2531113   -1.7434440   -1.0216591
H    -0.6541356   -1.2535051   -1.3462847
C     0.4494193   -3.0628597   -1.3413779
H    -0.3083162   -3.5944309   -1.9054060
C     1.6251726   -3.7207967   -0.9552541
H     1.7670048   -4.7687404   -1.1927019
C     2.6109872   -3.0144177   -0.3183050
H     3.5525612   -3.4902813   -0.0646367
Bq        -0.5311407126    -2.9376629219    -0.9278918438
Bq        -0.3716936575    -2.8312003175    -1.2789507426
Bq        -0.5710024764    -2.9642785730    -0.8401271191
Bq        -0.3318318937    -2.8045846664    -1.3667154673
Bq        -0.6108642402    -2.9908942241    -0.7523623944
Bq        -0.2919701299    -2.7779690153    -1.4544801921
Bq        -0.6507260040    -3.0175098753    -0.6645976696
Bq        -0.2521083661    -2.7513533642    -1.5422449168
Bq        -0.4514171851    -2.8844316197    -1.1034212932
Bq        -0.5022854222    -2.8146542881    -0.9914233180
Bq        -0.4225618947    -2.7614229859    -1.1669527675
Bq        -0.5421471860    -2.8412699392    -0.9036585933
Bq        -0.3827001309    -2.7348073348    -1.2547174922
Bq        -0.5820089498    -2.8678855903    -0.8158938686
Bq        -0.3428383671    -2.7081916837    -1.3424822169
Bq        -0.6218707136    -2.8945012414    -0.7281291439
Bq        -0.3029766033    -2.6815760326    -1.4302469416
Bq        -0.6617324774    -2.9211168925    -0.6403644192
Bq        -0.2631148395    -2.6549603815    -1.5180116663
Bq        -0.4624236584    -2.7880386370    -1.0791880427
Bq        -0.5132918956    -2.7182613054    -0.9671900676
Bq        -0.4335683680    -2.6650300032    -1.1427195170
Bq        -0.5531536594    -2.7448769565    -0.8794253429
Bq        -0.3937066042    -2.6384143521    -1.2304842417
Bq        -0.5930154232    -2.7714926076    -0.7916606182
Bq        -0.3538448405    -2.6117987010    -1.3182489664
Bq        -0.6328771870    -2.7981082587    -0.7038958934
Bq        -0.3139830767    -2.5851830499    -1.4060136911
Bq        -0.6727389508    -2.8247239098    -0.6161311687
Bq        -0.2741213129    -2.5585673988    -1.4937784159
Bq        -0.4734301318    -2.6916456543    -1.0549547923
Bq        -0.5242983690    -2.6218683227    -0.9429568171
Bq        -0.4445748414    -2.5686370205    -1.1184862665
Bq        -0.5641601328    -2.6484839738    -0.8551920924
Bq        -0.4047130776    -2.5420213694    -1.2062509913
Bq        -0.6040218966    -2.6750996249    -0.7674273677
Bq        -0.3648513138    -2.5154057183    -1.2940157160
Bq        -0.6438836603    -2.7017152760    -0.6796626430
Bq        -0.3249895500    -2.4887900672    -1.3817804407
Bq        -0.6837454241    -2.7283309271    -0.5918979183
Bq        -0.2851277863    -2.4621744160    -1.4695451654
Bq        -0.4844366052    -2.5952526716    -1.0307215418
Bq        -0.5353048423    -2.5254753400    -0.9187235667
Bq        -0.4555813148    -2.4722440378    -1.0942530161
Bq        -0.5751666061    -2.5520909911    -0.8309588419
Bq        -0.4157195510    -2.4456283867    -1.1820177408
Bq        -0.6150283699    -2.5787066422    -0.7431941172
Bq        -0.3758577872    -2.4190127355    -1.2697824655
Bq        -0.6548901337    -2.6053222933    -0.6554293925
Bq        -0.3359960234    -2.3923970844    -1.3575471902
Bq        -0.6947518975    -2.6319379444    -0.5676646678
Bq        -0.2961342596    -2.3657814333    -1.4453119149
Bq        -0.4954430786    -2.4988596889    -1.0064882914
Bq        -0.5463113157    -2.4290823573    -0.8944903162
Bq        -0.4665877881    -2.3758510550    -1.0700197656
Bq        -0.5861730795    -2.4556980084    -0.8067255915
Bq        -0.4267260244    -2.3492354039    -1.1577844903
Bq        -0.6260348433    -2.4823136595    -0.7189608668
Bq        -0.3868642606    -2.3226197528    -1.2455492151
Bq        -0.6658966071    -2.5089293106    -0.6311961421
Bq        -0.3470024968    -2.2960041017    -1.3333139398
Bq        -0.7057583709    -2.5355449617    -0.5434314174
Bq        -0.3071407330    -2.2693884506    -1.4210786645
Bq        -0.5064495519    -2.4024667062    -0.9822550409
Bq        -0.5573177891    -2.3326893746    -0.8702570657
Bq        -0.4775942615    -2.2794580723    -1.0457865152
Bq        -0.5971795529    -2.3593050257    -0.7824923410
Bq        -0.4377324977    -2.2528424212    -1.1335512399
Bq        -0.6370413167    -2.3859206768    -0.6947276163
Bq        -0.3978707339    -2.2262267701    -1.2213159646
Bq        -0.6769030805    -2.4125363279    -0.6069628916
Bq        -0.3580089702    -2.1996111190    -1.3090806893
Bq        -0.7167648442    -2.4391519790    -0.5191981669
Bq        -0.3181472064    -2.1729954679    -1.3968454140
Bq        -0.5174560253    -2.3060737234    -0.9580217905
Bq        -0.5683242625    -2.2362963918    -0.8460238153
Bq        -0.4886007349    -2.1830650896    -1.0215532647
Bq        -0.6081860263    -2.2629120429    -0.7582590906
Bq        -0.4487389711    -2.1564494385    -1.1093179894
Bq        -0.6480477900    -2.2895276941    -0.6704943659
Bq        -0.4088772073    -2.1298337874    -1.1970827141
Bq        -0.6879095538    -2.3161433452    -0.5827296412
Bq        -0.3690154435    -2.1032181363    -1.2848474389
Bq        -0.7277713176    -2.3427589963    -0.4949649164
Bq        -0.3291536797    -2.0766024852    -1.3726121636
Bq        -0.5284624987    -2.2096807407    -0.9337885400
Bq        -0.5793307358    -2.1399034091    -0.8217905648
Bq        -0.4996072083    -2.0866721069    -0.9973200143
Bq        -0.6191924996    -2.1665190602    -0.7340258401
Bq        -0.4597454445    -2.0600564558    -1.0850847390
Bq        -0.6590542634    -2.1931347113    -0.6462611154
Bq        -0.4198836807    -2.0334408047    -1.1728494637
Bq        -0.6989160272    -2.2197503624    -0.5584963907
Bq        -0.3800219169    -2.0068251536    -1.2606141884
Bq        -0.7387777910    -2.2463660136    -0.4707316660
Bq        -0.3401601531    -1.9802095025    -1.3483789131
Bq        -0.5394689720    -2.1132877580    -0.9095552895
Bq        -0.5903372092    -2.0435104264    -0.7975573144
Bq        -0.5106136816    -1.9902791242    -0.9730867638
Bq        -0.6301989730    -2.0701260775    -0.7097925897
Bq        -0.4707519178    -1.9636634731    -1.0608514885
Bq        -0.6700607368    -2.0967417286    -0.6220278649
Bq        -0.4308901541    -1.9370478220    -1.1486162132
Bq        -0.7099225006    -2.1233573797    -0.5342631402
Bq        -0.3910283903    -1.9104321709    -1.2363809379
Bq        -0.7497842644    -2.1499730308    -0.4464984155
Bq        -0.3511666265    -1.8838165198    -1.3241456626
Bq        -0.5504754454    -2.0168947753    -0.8853220391
Bq        -0.6013436826    -1.9471174437    -0.7733240639
Bq        -0.5216201550    -1.8938861415    -0.9488535133
Bq        -0.6412054464    -1.9737330948    -0.6855593392
Bq        -0.4817583912    -1.8672704904    -1.0366182381
Bq        -0.6810672102    -2.0003487459    -0.5977946145
Bq        -0.4418966274    -1.8406548393    -1.1243829628
Bq        -0.7209289739    -2.0269643970    -0.5100298898
Bq        -0.4020348636    -1.8140391882    -1.2121476875
Bq        -0.7607907377    -2.0535800481    -0.4222651651
Bq        -0.3621730999    -1.7874235371    -1.2999124122
Bq        -0.5614819188    -1.9205017926    -0.8610887886
Bq        -0.6123501560    -1.8507244610    -0.7490908135
Bq        -0.5326266284    -1.7974931588    -0.9246202629
Bq        -0.6522119197    -1.8773401121    -0.6613260887
Bq        -0.4927648646    -1.7708775077    -1.0123849876
Bq        -0.6920736835    -1.9039557632    -0.5735613640
Bq        -0.4529031008    -1.7442618566    -1.1001497123
Bq        -0.7319354473    -1.9305714143    -0.4857966393
Bq        -0.4130413370    -1.7176462055    -1.1879144370
Bq        -0.7717972111    -1.9571870654    -0.3980319146
Bq        -0.3731795732    -1.6910305543    -1.2756791617
Bq        -0.5724883922    -1.8241088099    -0.8368555382
Bq        -0.6233566293    -1.7543314783    -0.7248575630
Bq        -0.5436331018    -1.7011001761    -0.9003870124
Bq        -0.6632183931    -1.7809471294    -0.6370928383
Bq        -0.5037713380    -1.6744845250    -0.9881517371
Bq        -0.7030801569    -1.8075627805    -0.5493281136
Bq        -0.4639095742    -1.6478688739    -1.0759164618
Bq        -0.7429419207    -1.8341784316    -0.4615633889
Bq        -0.4240478104    -1.6212532227    -1.1636811866
Bq        -0.7828036845    -1.8607940827    -0.3737986641
Bq        -0.3841860466    -1.5946375716    -1.2514459113
Bq        -0.5834948655    -1.7277158272    -0.8126222877
Bq        -0.6343631027    -1.6579384956    -0.7006243125
Bq        -0.5546395751    -1.6047071934    -0.8761537620
Bq        -0.6742248665    -1.6845541467    -0.6128595878
Bq        -0.5147778113    -1.5780915422    -0.9639184867
Bq        -0.7140866303    -1.7111697978    -0.5250948631
Bq        -0.4749160475    -1.5514758911    -1.0516832114
Bq        -0.7539483941    -1.7377854489    -0.4373301384
Bq        -0.4350542838    -1.5248602400    -1.1394479361
Bq        -0.7938101578    -1.7644011000    -0.3495654137
Bq        -0.3951925200    -1.4982445889    -1.2272126608
Bq        -0.5945013389    -1.6313228445    -0.7883890373
Bq        -0.6453695761    -1.5615455129    -0.6763910621
Bq        -0.5656460485    -1.5083142106    -0.8519205115
Bq        -0.6852313399    -1.5881611640    -0.5886263374
Bq        -0.5257842847    -1.4816985595    -0.9396852362
Bq        -0.7250931036    -1.6147768151    -0.5008616127
Bq        -0.4859225209    -1.4550829084    -1.0274499609
Bq        -0.7649548674    -1.6413924662    -0.4130968879
Bq        -0.4460607571    -1.4284672573    -1.1152146856
Bq        -0.8048166312    -1.6680081173    -0.3253321632
Bq        -0.4061989933    -1.4018516062    -1.2029794104
Bq        -0.6055078123    -1.5349298617    -0.7641557868
Bq        -0.6563760494    -1.4651525301    -0.6521578116
Bq        -0.5766525219    -1.4119212279    -0.8276872610
Bq        -0.6962378132    -1.4917681812    -0.5643930869
Bq        -0.5367907581    -1.3853055768    -0.9154519858
Bq        -0.7360995770    -1.5183838324    -0.4766283622
Bq        -0.4969289943    -1.3586899257    -1.0032167105
Bq        -0.7759613408    -1.5449994835    -0.3888636375
Bq        -0.4570672305    -1.3320742746    -1.0909814352
Bq        -0.8158231046    -1.5716151346    -0.3010989128
Bq        -0.4172054667    -1.3054586235    -1.1787461599
Bq        -0.6165142857    -1.4385368790    -0.7399225363
Bq        -0.6673825228    -1.3687595474    -0.6279245612
Bq        -0.5876589952    -1.3155282452    -0.8034540106
Bq        -0.7072442866    -1.3953751985    -0.5401598365
Bq        -0.5477972315    -1.2889125941    -0.8912187353
Bq        -0.7471060504    -1.4219908496    -0.4523951117
Bq        -0.5079354677    -1.2622969430    -0.9789834600
Bq        -0.7869678142    -1.4486065008    -0.3646303870
Bq        -0.4680737039    -1.2356812919    -1.0667481847
Bq        -0.8268295780    -1.4752221519    -0.2768656623
Bq        -0.4282119401    -1.2090656408    -1.1545129094
Bq        -0.6275207590    -1.3421438963    -0.7156892859
Bq        -0.6783889962    -1.2723665647    -0.6036913107
Bq        -0.5986654686    -1.2191352625    -0.7792207601
Bq        -0.7182507600    -1.2989822158    -0.5159265860
Bq        -0.5588037048    -1.1925196114    -0.8669854848
Bq        -0.7581125238    -1.3255978669    -0.4281618613
Bq        -0.5189419410    -1.1659039603    -0.9547502096
Bq        -0.7979742875    -1.3522135180    -0.3403971366
Bq        -0.4790801772    -1.1392883092    -1.0425149343
Bq        -0.8378360513    -1.3788291691    -0.2526324119
Bq        -0.4392184135    -1.1126726581    -1.1302796590
Bq        -0.6385272324    -1.2457509136    -0.6914560354
Bq        -0.6893954696    -1.1759735820    -0.5794580603
Bq        -0.6096719420    -1.1227422798    -0.7549875097
Bq        -0.7292572333    -1.2025892331    -0.4916933355
Bq        -0.5698101782    -1.0961266287    -0.8427522344

1
2
3
4
5
6
7
8
9
10
11
12
13
14
15
16
17
18
19
20
21
22
23
24
25
26
27
28
29
30
31
32
33
34
35
36
37
38
39
40
41
42
43
44
45
46
47
48
49
50
51
52
53
54
55
56
57
58
59
60
61
62
63
64
65
66
67
68
69
70
71
72
73
74
75
76
77
78
79
80
81
82
83
84
85
86
87
88
89
90
91
92
93
94
95
96
97
98
99
100
101
102
103
104
105
106
107
108
109
110
111
112
113
114
115
116
117
118
119
120
121
122
123
124
125
126
127
128
129
130
131
132
133
134
135
136
137
138
139
140
141
142
143
144
145
146
147
148
149
150
151
152
153
154
155
156
157
158
159
160
161
162
163
164
165
166
167
168
169
170
171
172
173
174
175
176
177
178
179
180
181
182
183
184
185
186
187
188
189
190
191
192
193
194
195
196
197
198
199
200
201
202
203
204
205
206
207
208
209
210
211
212
213
214
215
216
217
218
219
220
221
222
223
224
225
226
227
228
229
230
231
232
233
234
235
236

