%nproc=8
%mem=1000MB
# rb3lyp/6-311+g** NMR geom=connectivity

Title

0 1
C    -4.0500558   -0.5771862    0.8136712
H    -5.0263804   -1.0082727    1.0024760
C    -3.9381552    0.6617804    0.2400876
H    -4.8252424    1.2338890   -0.0111295
C    -2.6768410    1.2433246    0.0057578
C    -1.4974121    0.5051527    0.2848253
C    -1.6508332   -0.7338728    0.9404026
H    -0.7713646   -1.2730967    1.2633753
C    -2.8898548   -1.2624035    1.1994307
H    -2.9683706   -2.2124563    1.7152676
C    -2.5773185    2.5963696   -0.4192930
H    -3.4870728    3.1412239   -0.6474055
C    -1.3741895    3.2147896   -0.4364030
H    -1.2997315    4.2742019   -0.6578144
C    -0.1719488    2.4994090   -0.1734588
C    -0.2043917    1.1018437    0.0192689
C     1.0513491    3.2042560   -0.0676222
H     1.0427344    4.2819499   -0.1896997
C     2.1942091    2.5487446    0.2579577
H     3.1168527    3.0912848    0.4334727
C     2.2216473    1.1336562    0.2934990
C     1.0486931    0.3945528    0.0302412
C     3.4483363    0.4614633    0.5573939
H     4.3095794    1.0606054    0.8334846
C     3.5427346   -0.8855926    0.4749463
H     4.4731467   -1.3939704    0.7038822
C     2.4490052   -1.6474447   -0.0196319
C     1.2150704   -1.0057258   -0.3013573
C     0.2531113   -1.7434440   -1.0216591
H    -0.6541356   -1.2535051   -1.3462847
C     0.4494193   -3.0628597   -1.3413779
H    -0.3083162   -3.5944309   -1.9054060
C     1.6251726   -3.7207967   -0.9552541
H     1.7670048   -4.7687404   -1.1927019
C     2.6109872   -3.0144177   -0.3183050
H     3.5525612   -3.4902813   -0.0646367
Bq         0.5498852108     3.1416544271     0.5317539566
Bq         0.5788371169     3.1318274569     0.3341047274
Bq         0.5354092578     3.1465679121     0.6305785711
Bq         0.5933130700     3.1269139718     0.2352801128
Bq         0.5209333047     3.1514813972     0.7294031857
Bq         0.6077890230     3.1220004867     0.1364554982
Bq         0.5064573517     3.1563948823     0.8282278003
Bq         0.6222649760     3.1170870017     0.0376308836
Bq         0.4919813986     3.1613083674     0.9270524149
Bq         0.6367409291     3.1121735166    -0.0611937310
Bq         0.5643611639     3.1367409420     0.4329293420
Bq         0.5505973448     3.2415336424     0.5268923518
Bq         0.5795492509     3.2317066723     0.3292431226
Bq         0.5361213917     3.2464471275     0.6257169664
Bq         0.5940252039     3.2267931872     0.2304185080
Bq         0.5216454387     3.2513606126     0.7245415810
Bq         0.6085011569     3.2218797021     0.1315938934
Bq         0.5071694856     3.2562740977     0.8233661955
Bq         0.6229771100     3.2169662170     0.0327692789
Bq         0.4926935326     3.2611875828     0.9221908101
Bq         0.6374530630     3.2120527319    -0.0660553357
Bq         0.5650732978     3.2366201574     0.4280677372
Bq         0.5513094787     3.3414128578     0.5220307470
Bq         0.5802613848     3.3315858877     0.3243815179
Bq         0.5368335257     3.3463263429     0.6208553616
Bq         0.5947373378     3.3266724026     0.2255569033
Bq         0.5223575726     3.3512398280     0.7196799762
Bq         0.6092132909     3.3217589175     0.1267322887
Bq         0.5078816196     3.3561533131     0.8185045908
Bq         0.6236892439     3.3168454324     0.0279076741
Bq         0.4934056665     3.3610667981     0.9173292054
Bq         0.6381651970     3.3119319473    -0.0709169405
Bq         0.5657854318     3.3364993727     0.4232061324
Bq         0.5520216126     3.4412920732     0.5171691423
Bq         0.5809735187     3.4314651030     0.3195199131
Bq         0.5375456596     3.4462055583     0.6159937568
Bq         0.5954494718     3.4265516179     0.2206952985
Bq         0.5230697066     3.4511190434     0.7148183714
Bq         0.6099254248     3.4216381329     0.1218706839
Bq         0.5085937535     3.4560325284     0.8136429860
Bq         0.6244013779     3.4167246478     0.0230460693
Bq         0.4941178005     3.4609460135     0.9124676006
Bq         0.6388773309     3.4118111627    -0.0757785453
Bq         0.5664975657     3.4363785881     0.4183445277
Bq         0.5527337466     3.5411712886     0.5123075375
Bq         0.5816856527     3.5313443184     0.3146583083
Bq         0.5382577935     3.5460847737     0.6111321521
Bq         0.5961616057     3.5264308333     0.2158336937
Bq         0.5237818405     3.5509982587     0.7099567667
Bq         0.6106375588     3.5215173482     0.1170090792
Bq         0.5093058875     3.5559117438     0.8087813812
Bq         0.6251135118     3.5166038632     0.0181844646
Bq         0.4948299344     3.5608252289     0.9076059958
Bq         0.6395894649     3.5116903781    -0.0806401500
Bq         0.5672096996     3.5362578035     0.4134829229
Bq         0.5534458805     3.6410505039     0.5074459327
Bq         0.5823977866     3.6312235338     0.3097967036
Bq         0.5389699275     3.6459639890     0.6062705473
Bq         0.5968737397     3.6263100487     0.2109720890
Bq         0.5244939744     3.6508774741     0.7050951619
Bq         0.6113496927     3.6213965636     0.1121474744
Bq         0.5100180214     3.6557909592     0.8039197765
Bq         0.6258256458     3.6164830785     0.0133228598
Bq         0.4955420684     3.6607044443     0.9027443911
Bq         0.6403015988     3.6115695935    -0.0855017548
Bq         0.5679218336     3.6361370189     0.4086213181
Bq         0.5541580145     3.7409297193     0.5025843280
Bq         0.5831099206     3.7311027492     0.3049350988
Bq         0.5396820614     3.7458432044     0.6014089425
Bq         0.5975858736     3.7261892641     0.2061104842
Bq         0.5252061084     3.7507566895     0.7002335571
Bq         0.6120618267     3.7212757790     0.1072858696
Bq         0.5107301553     3.7556701746     0.7990581717
Bq         0.6265377797     3.7163622939     0.0084612550
Bq         0.4962542023     3.7605836597     0.8978827863
Bq         0.6410137327     3.7114488088    -0.0903633596
Bq         0.5686339675     3.7360162342     0.4037597134
Bq         0.5548701484     3.8408089347     0.4977227232
Bq         0.5838220545     3.8309819645     0.3000734940
Bq         0.5403941954     3.8457224198     0.5965473378
Bq         0.5982980075     3.8260684795     0.2012488794
Bq         0.5259182423     3.8506359049     0.6953719524
Bq         0.6127739606     3.8211549944     0.1024242649
Bq         0.5114422893     3.8555493900     0.7941965669
Bq         0.6272499136     3.8162415093     0.0035996503
Bq         0.4969663362     3.8604628750     0.8930211815
Bq         0.6417258667     3.8113280242    -0.0952249643
Bq         0.5693461015     3.8358954496     0.3988981086
Bq         0.5555822824     3.9406881501     0.4928611184
Bq         0.5845341884     3.9308611799     0.2952118893
Bq         0.5411063293     3.9456016352     0.5916857330
Bq         0.5990101415     3.9259476948     0.1963872747
Bq         0.5266303763     3.9505151202     0.6905103476
Bq         0.6134860945     3.9210342098     0.0975626601
Bq         0.5121544232     3.9554286053     0.7893349622
Bq         0.6279620476     3.9161207247    -0.0012619545
Bq         0.4976784702     3.9603420904     0.8881595768
Bq         0.6424380006     3.9112072396    -0.1000865691
Bq         0.5700582354     3.9357746650     0.3940365038
Bq         0.5562944163     4.0405673655     0.4879995137
Bq         0.5852463224     4.0307403953     0.2903502845
Bq         0.5418184633     4.0454808505     0.5868241282
Bq         0.5997222754     4.0258269102     0.1915256699
Bq         0.5273425102     4.0503943356     0.6856487428
Bq         0.6141982285     4.0209134251     0.0927010553
Bq         0.5128665572     4.0553078207     0.7844733574
Bq         0.6286741815     4.0159999400    -0.0061235593
Bq         0.4983906041     4.0602213058     0.8832979720
Bq         0.6431501346     4.0110864550    -0.1049481739
Bq         0.5707703693     4.0356538804     0.3891748991
Bq         0.5570065502     4.1404465808     0.4831379089
Bq         0.5859584563     4.1306196107     0.2854886797
Bq         0.5425305972     4.1453600659     0.5819625235
Bq         0.6004344094     4.1257061256     0.1866640651
Bq         0.5280546442     4.1502735510     0.6807871381
Bq         0.6149103624     4.1207926405     0.0878394506
Bq         0.5135786911     4.1551870361     0.7796117526
Bq         0.6293863155     4.1158791554    -0.0109851640
Bq         0.4991027381     4.1601005212     0.8784363672
Bq         0.6438622685     4.1109656703    -0.1098097786
Bq         0.5714825033     4.1355330958     0.3843132943
Bq         0.5577186842     4.2403257962     0.4782763041
Bq         0.5866705903     4.2304988260     0.2806270750
Bq         0.5432427311     4.2452392813     0.5771009187
Bq         0.6011465433     4.2255853410     0.1818024604
Bq         0.5287667781     4.2501527664     0.6759255333
Bq         0.6156224964     4.2206718559     0.0829778458
Bq         0.5142908250     4.2550662515     0.7747501479
Bq         0.6300984494     4.2157583708    -0.0158467688
Bq         0.4998148720     4.2599797365     0.8735747625
Bq         0.6445744024     4.2108448857    -0.1146713834
Bq         0.5721946372     4.2354123111     0.3794516895
Bq         0.5584308181     4.3402050116     0.4734146994
Bq         0.5873827242     4.3303780414     0.2757654702
Bq         0.5439548651     4.3451184967     0.5722393139
Bq         0.6018586773     4.3254645563     0.1769408556
Bq         0.5294789120     4.3500319818     0.6710639285
Bq         0.6163346303     4.3205510713     0.0781162410
Bq         0.5150029590     4.3549454668     0.7698885431
Bq         0.6308105833     4.3156375862    -0.0207083736
Bq         0.5005270059     4.3598589519     0.8687131577
Bq         0.6452865364     4.3107241011    -0.1195329882
Bq         0.5729067712     4.3352915265     0.3745900848
Bq         0.6217682449    -0.6537557573     0.7309883966
Bq         0.6507201510    -0.6635827274     0.5333391674
Bq         0.6072922919    -0.6488422722     0.8298130112
Bq         0.6651961040    -0.6684962125     0.4345145528
Bq         0.5928163388    -0.6439287871     0.9286376258
Bq         0.6796720571    -0.6734096976     0.3356899383
Bq         0.5783403858    -0.6390153020     1.0274622403
Bq         0.6941480101    -0.6783231827     0.2368653237
Bq         0.5638644327    -0.6341018169     1.1262868549
Bq         0.7086239632    -0.6832366678     0.1380407091
Bq         0.6362441980    -0.6586692423     0.6321637820
Bq         0.6224803789    -0.5538765419     0.7261267918
Bq         0.6514322849    -0.5637035121     0.5284775627
Bq         0.6080044258    -0.5489630568     0.8249514064
Bq         0.6659082380    -0.5686169971     0.4296529481
Bq         0.5935284728    -0.5440495717     0.9237760210
Bq         0.6803841910    -0.5735304822     0.3308283335
Bq         0.5790525197    -0.5391360866     1.0226006356
Bq         0.6948601441    -0.5784439673     0.2320037189
Bq         0.5645765667    -0.5342226016     1.1214252502
Bq         0.7093360971    -0.5833574524     0.1331791043
Bq         0.6369563319    -0.5587900270     0.6273021772
Bq         0.6231925128    -0.4539973265     0.7212651871
Bq         0.6521444189    -0.4638242967     0.5236159579
Bq         0.6087165598    -0.4490838414     0.8200898016
Bq         0.6666203719    -0.4687377818     0.4247913433
Bq         0.5942406067    -0.4441703563     0.9189144162
Bq         0.6810963250    -0.4736512668     0.3259667287
Bq         0.5797646537    -0.4392568713     1.0177390308
Bq         0.6955722780    -0.4785647519     0.2271421141
Bq         0.5652887006    -0.4343433862     1.1165636454
Bq         0.7100482311    -0.4834782370     0.1283174996
Bq         0.6376684658    -0.4589108116     0.6224405725
Bq         0.6239046467    -0.3541181111     0.7164035823
Bq         0.6528565528    -0.3639450813     0.5187543531
Bq         0.6094286937    -0.3492046261     0.8152281969
Bq         0.6673325059    -0.3688585664     0.4199297385
Bq         0.5949527406    -0.3442911410     0.9140528115
Bq         0.6818084589    -0.3737720515     0.3211051240
Bq         0.5804767876    -0.3393776559     1.0128774260
Bq         0.6962844120    -0.3786855365     0.2222805094
Bq         0.5660008346    -0.3344641708     1.1117020406
Bq         0.7107603650    -0.3835990216     0.1234558948
Bq         0.6383805998    -0.3590315962     0.6175789677
Bq         0.6246167807    -0.2542388958     0.7115419775
Bq         0.6535686868    -0.2640658659     0.5138927484
Bq         0.6101408276    -0.2493254107     0.8103665921
Bq         0.6680446398    -0.2689793510     0.4150681338
Bq         0.5956648746    -0.2444119256     0.9091912067
Bq         0.6825205929    -0.2738928361     0.3162435192
Bq         0.5811889215    -0.2394984405     1.0080158213
Bq         0.6969965459    -0.2788063212     0.2174189046
Bq         0.5667129685    -0.2345849554     1.1068404359
Bq         0.7114724989    -0.2837198063     0.1185942900
Bq         0.6390927337    -0.2591523808     0.6127173629
Bq         0.6253289146    -0.1543596804     0.7066803728
Bq         0.6542808207    -0.1641866505     0.5090311436

1
2
3
4
5
6
7
8
9
10
11
12
13
14
15
16
17
18
19
20
21
22
23
24
25
26
27
28
29
30
31
32
33
34
35
36
37
38
39
40
41
42
43
44
45
46
47
48
49
50
51
52
53
54
55
56
57
58
59
60
61
62
63
64
65
66
67
68
69
70
71
72
73
74
75
76
77
78
79
80
81
82
83
84
85
86
87
88
89
90
91
92
93
94
95
96
97
98
99
100
101
102
103
104
105
106
107
108
109
110
111
112
113
114
115
116
117
118
119
120
121
122
123
124
125
126
127
128
129
130
131
132
133
134
135
136
137
138
139
140
141
142
143
144
145
146
147
148
149
150
151
152
153
154
155
156
157
158
159
160
161
162
163
164
165
166
167
168
169
170
171
172
173
174
175
176
177
178
179
180
181
182
183
184
185
186
187
188
189
190
191
192
193
194
195
196
197
198
199
200
201
202
203
204
205
206
207
208
209
210
211
212
213
214
215
216
217
218
219
220
221
222
223
224
225
226
227
228
229
230
231
232
233
234
235
236

