%nproc=8
%mem=1000MB
# rb3lyp/6-311+g** NMR geom=connectivity

Title

0 1
C    -4.0500558   -0.5771862    0.8136712
H    -5.0263804   -1.0082727    1.0024760
C    -3.9381552    0.6617804    0.2400876
H    -4.8252424    1.2338890   -0.0111295
C    -2.6768410    1.2433246    0.0057578
C    -1.4974121    0.5051527    0.2848253
C    -1.6508332   -0.7338728    0.9404026
H    -0.7713646   -1.2730967    1.2633753
C    -2.8898548   -1.2624035    1.1994307
H    -2.9683706   -2.2124563    1.7152676
C    -2.5773185    2.5963696   -0.4192930
H    -3.4870728    3.1412239   -0.6474055
C    -1.3741895    3.2147896   -0.4364030
H    -1.2997315    4.2742019   -0.6578144
C    -0.1719488    2.4994090   -0.1734588
C    -0.2043917    1.1018437    0.0192689
C     1.0513491    3.2042560   -0.0676222
H     1.0427344    4.2819499   -0.1896997
C     2.1942091    2.5487446    0.2579577
H     3.1168527    3.0912848    0.4334727
C     2.2216473    1.1336562    0.2934990
C     1.0486931    0.3945528    0.0302412
C     3.4483363    0.4614633    0.5573939
H     4.3095794    1.0606054    0.8334846
C     3.5427346   -0.8855926    0.4749463
H     4.4731467   -1.3939704    0.7038822
C     2.4490052   -1.6474447   -0.0196319
C     1.2150704   -1.0057258   -0.3013573
C     0.2531113   -1.7434440   -1.0216591
H    -0.6541356   -1.2535051   -1.3462847
C     0.4494193   -3.0628597   -1.3413779
H    -0.3083162   -3.5944309   -1.9054060
C     1.6251726   -3.7207967   -0.9552541
H     1.7670048   -4.7687404   -1.1927019
C     2.6109872   -3.0144177   -0.3183050
H     3.5525612   -3.4902813   -0.0646367
Bq        -2.8837112405     0.5100215974     0.5429922513
Bq        -2.8861892095     0.8144006164     1.1733471295
Bq        -2.8833572449     0.4665388804     0.4529415544
Bq        -2.8865432050     0.8578833334     1.2633978264
Bq        -2.8830032493     0.4230561634     0.3628908576
Bq        -2.8847732272     0.6404697484     0.8131443420
Bq        -2.8849562905     0.7740038581     0.8597126578
Bq        -2.8842482993     0.6870384240     0.6796112641
Bq        -2.8853102861     0.8174865751     0.9497633547
Bq        -2.8838943038     0.6435557070     0.5895605672
Bq        -2.8856642816     0.8609692921     1.0398140516
Bq        -2.8835403082     0.6000729900     0.4995098703
Bq        -2.8860182772     0.9044520091     1.1298647485
Bq        -2.8831863126     0.5565902730     0.4094591734
Bq        -2.8863722728     0.9479347261     1.2199154454
Bq        -2.8828323170     0.5131075560     0.3194084765
Bq        -2.8846022949     0.7305211410     0.7696619609
Bq        -2.8847853582     0.8640552507     0.8162302768
Bq        -2.8840773671     0.7770898167     0.6361288830
Bq        -2.8851393538     0.9075379677     0.9062809737
Bq        -2.8837233715     0.7336070997     0.5460781861
Bq        -2.8854933494     0.9510206847     0.9963316706
Bq        -2.8833693759     0.6901243827     0.4560274893
Bq        -2.8858473449     0.9945034017     1.0863823674
Bq        -2.8830153803     0.6466416657     0.3659767924
Bq        -2.8862013405     1.0379861187     1.1764330643
Bq        -2.8826613848     0.6031589487     0.2759260955
Bq        -2.8844313626     0.8205725337     0.7261795799
Bq        -2.8846144259     0.9541066434     0.7727478958
Bq        -2.8839064348     0.8671412094     0.5926465020
Bq        -2.8849684215     0.9975893604     0.8627985926
Bq        -2.8835524392     0.8236584924     0.5025958051
Bq        -2.8853224171     1.0410720774     0.9528492895
Bq        -2.8831984436     0.7801757754     0.4125451082
Bq        -2.8856764127     1.0845547944     1.0428999864
Bq        -2.8828444481     0.7366930584     0.3224944113
Bq        -2.8860304082     1.1280375114     1.1329506833
Bq        -2.8824904525     0.6932103414     0.2324437145
Bq        -2.8842604304     0.9106239264     0.6826971989
Bq        -2.8844434937     1.0441580361     0.7292655147
Bq        -2.8837355025     0.9571926021     0.5491641210
Bq        -2.8847974892     1.0876407531     0.8193162116
Bq        -2.8833815069     0.9137098850     0.4591134241
Bq        -2.8851514848     1.1311234701     0.9093669085
Bq        -2.8830275114     0.8702271680     0.3690627272
Bq        -2.8855054804     1.1746061871     0.9994176054
Bq        -2.8826735158     0.8267444510     0.2790120303
Bq        -2.8858594760     1.2180889041     1.0894683023
Bq        -2.8823195202     0.7832617340     0.1889613334
Bq        -2.8840894981     1.0006753191     0.6392148178
Bq        -2.8842725614     1.1342094287     0.6857831337
Bq        -2.8835645702     1.0472439947     0.5056817399
Bq        -2.8846265570     1.1776921457     0.7758338306
Bq        -2.8832105747     1.0037612777     0.4156310430
Bq        -2.8849805525     1.2211748627     0.8658845275
Bq        -2.8828565791     0.9602785607     0.3255803462
Bq        -2.8853345481     1.2646575797     0.9559352243
Bq        -2.8825025835     0.9167958437     0.2355296493
Bq        -2.8856885437     1.3081402968     1.0459859212
Bq        -2.8821485879     0.8733131267     0.1454789524
Bq        -2.8839185658     1.0907267117     0.5957324368
Bq        -2.8841016291     1.2242608214     0.6423007527
Bq        -2.8833936380     1.1372953874     0.4621993589
Bq        -2.8844556247     1.2677435384     0.7323514495
Bq        -2.8830396424     1.0938126704     0.3721486620
Bq        -2.8848096203     1.3112262554     0.8224021464
Bq        -2.8826856468     1.0503299534     0.2820979651
Bq        -2.8851636158     1.3547089724     0.9124528433
Bq        -2.8823316512     1.0068472364     0.1920472682
Bq        -2.8855176114     1.3981916894     1.0025035402
Bq        -2.8819776557     0.9633645194     0.1019965714
Bq        -2.8837476335     1.1807781044     0.5522500558
Bq        -2.8839306968     1.3143122141     0.5988183716
Bq        -2.8832227057     1.2273467801     0.4187169779
Bq        -2.8842846924     1.3577949311     0.6888690685
Bq        -2.8828687101     1.1838640631     0.3286662810
Bq        -2.8846386880     1.4012776481     0.7789197654
Bq        -2.8825147145     1.1403813461     0.2386155841
Bq        -2.8849926836     1.4447603651     0.8689704623
Bq        -2.8821607190     1.0968986291     0.1485648872
Bq        -2.8853466791     1.4882430821     0.9590211592
Bq        -2.8818067234     1.0534159120     0.0585141903
Bq        -2.8835767013     1.2708294971     0.5087676747
Bq        -2.8837597646     1.4043636067     0.5553359906
Bq        -2.8830517734     1.3173981727     0.3752345968
Bq        -2.8841137601     1.4478463237     0.6453866875
Bq        -2.8826977778     1.2739154557     0.2851839000
Bq        -2.8844677557     1.4913290408     0.7354373844
Bq        -2.8823437823     1.2304327387     0.1951332031
Bq        -2.8848217513     1.5348117578     0.8254880812
Bq        -2.8819897867     1.1869500217     0.1050825062
Bq        -2.8851757469     1.5782944748     0.9155387781
Bq        -2.8816357911     1.1434673047     0.0150318093
Bq        -2.8834057690     1.3608808897     0.4652852937
Bq        -2.8835888323     1.4944149994     0.5118536096
Bq        -2.8828808411     1.4074495654     0.3317522158
Bq        -2.8839428279     1.5378977164     0.6019043064
Bq        -2.8825268456     1.3639668484     0.2417015189
Bq        -2.8842968234     1.5813804334     0.6919550033
Bq        -2.8821728500     1.3204841314     0.1516508220
Bq        -2.8846508190     1.6248631504     0.7820057002
Bq        -2.8818188544     1.2770014144     0.0616001252
Bq        -2.8850048146     1.6683458674     0.8720563971
Bq        -2.8814648588     1.2335186974    -0.0284505717
Bq        -2.8832348367     1.4509322824     0.4218029127
Bq        -2.8834179000     1.5844663921     0.4683712285
Bq        -2.8827099089     1.4975009581     0.2882698348
Bq        -2.8837718956     1.6279491091     0.5584219254
Bq        -2.8823559133     1.4540182411     0.1982191379
Bq        -2.8841258912     1.6714318261     0.6484726223
Bq        -2.8820019177     1.4105355241     0.1081684410
Bq        -2.8844798867     1.7149145431     0.7385233192
Bq        -2.8816479221     1.3670528071     0.0181177441
Bq        -2.8848338823     1.7583972601     0.8285740161
Bq        -2.8812939266     1.3235700901    -0.0719329528
Bq        -2.8830639044     1.5409836751     0.3783205317
Bq        -2.8832469677     1.6745177848     0.4248888475
Bq        -2.8825389766     1.5875523507     0.2447874537
Bq        -2.8836009633     1.7180005018     0.5149395444
Bq        -2.8821849810     1.5440696337     0.1547367569
Bq        -2.8839549589     1.7614832188     0.6049902413
Bq        -2.8818309854     1.5005869167     0.0646860600
Bq        -2.8843089545     1.8049659358     0.6950409381
Bq        -2.8814769899     1.4571041997    -0.0253646369
Bq        -2.8846629500     1.8484486528     0.7850916350
Bq        -2.8811229943     1.4136214827    -0.1154153338
Bq        -2.8828929722     1.6310350678     0.3348381506
Bq        -2.8830760355     1.7645691774     0.3814064665
Bq        -2.8823680443     1.6776037434     0.2013050727
Bq        -2.8834300310     1.8080518944     0.4714571634
Bq        -2.8820140487     1.6341210264     0.1112543758
Bq        -2.8837840266     1.8515346114     0.5615078602
Bq        -2.8816600532     1.5906383094     0.0212036789
Bq        -2.8841380222     1.8950173284     0.6515585571
Bq        -2.8813060576     1.5471555924    -0.0688470179
Bq        -2.8844920178     1.9385000454     0.7416092540
Bq        -2.8809520620     1.5036728754    -0.1588977148
Bq        -2.8827220399     1.7210864604     0.2913557696
Bq        -2.8829051032     1.8546205701     0.3379240854
Bq        -2.8821971120     1.7676551361     0.1578226917
Bq        -2.8832590988     1.8981032871     0.4279747823
Bq        -2.8818431165     1.7241724191     0.0677719948
Bq        -2.8836130943     1.9415860041     0.5180254792
Bq        -2.8814891209     1.6806897021    -0.0222787021
Bq        -2.8839670899     1.9850687211     0.6080761761
Bq        -2.8811351253     1.6372069851    -0.1123293990
Bq        -2.8843210855     2.0285514381     0.6981268730
Bq        -2.8807811297     1.5937242681    -0.2023800959
Bq        -2.8825511076     1.8111378531     0.2478733886
Bq        -2.8827341709     1.9446719628     0.2944417044
Bq        -2.8820261798     1.8577065288     0.1143403106
Bq        -2.8830881665     1.9881546798     0.3844924013
Bq        -2.8816721842     1.8142238118     0.0242896138
Bq        -2.8834421621     2.0316373968     0.4745430982
Bq        -2.8813181886     1.7707410947    -0.0657610831
Bq        -2.8837961576     2.0751201138     0.5645937951
Bq        -2.8809641930     1.7272583777    -0.1558117800
Bq        -2.8841501532     2.1186028308     0.6546444919
Bq        -2.8806101975     1.6837756607    -0.2458624769
Bq        -2.8823801753     1.9011892458     0.2043910075
Bq        -2.8825632386     2.0347233554     0.2509593234
Bq        -2.8818552475     1.9477579214     0.0708579296
Bq        -2.8829172342     2.0782060724     0.3410100203
Bq        -2.8815012519     1.9042752044    -0.0191927673
Bq        -2.8832712298     2.1216887894     0.4310607171
Bq        -2.8811472563     1.8607924874    -0.1092434642
Bq        -2.8836252254     2.1651715065     0.5211114140
Bq        -2.8807932608     1.8173097704    -0.1992941610
Bq        -2.8839792209     2.2086542235     0.6111621109
Bq        -2.8804392652     1.7738270534    -0.2893448579
Bq        -2.8822092431     1.9912406384     0.1609086265
Bq        -2.8823923064     2.1247747481     0.2074769423
Bq        -2.8816843152     2.0378093141     0.0273755486
Bq        -2.8827463019     2.1682574651     0.2975276392
Bq        -2.8813303196     1.9943265971    -0.0626751483
Bq        -2.8831002975     2.2117401821     0.3875783361
Bq        -2.8809763241     1.9508438801    -0.1527258452
Bq        -2.8834542931     2.2552228991     0.4776290330
Bq        -2.8806223285     1.9073611631    -0.2427765421
Bq        -2.8838082887     2.2987056161     0.5676797299
Bq        -2.8802683329     1.8638784461    -0.3328272390
Bq        -2.8820383108     2.0812920311     0.1174262455
Bq        -2.8822213741     2.2148261408     0.1639945613
Bq        -2.8815133829     2.1278607068    -0.0161068325
Bq        -2.8825753697     2.2583088578     0.2540452582
Bq        -2.8811593874     2.0843779898    -0.1061575293
Bq        -2.8829293652     2.3017915748     0.3440959551
Bq        -2.8808053918     2.0408952728    -0.1962082262
Bq        -2.8832833608     2.3452742918     0.4341466520
Bq        -2.8804513962     1.9974125558    -0.2862589231
Bq        -2.8836373564     2.3887570088     0.5241973488
Bq        -2.8800974006     1.9539298388    -0.3763096200
Bq        -2.8818673785     2.1713434238     0.0739438644
Bq        -2.8820504418     2.3048775334     0.1205121803
Bq        -2.8813424507     2.2179120994    -0.0595892135
Bq        -2.8824044374     2.3483602505     0.2105628772
Bq        -2.8809884551     2.1744293824    -0.1496399104
Bq        -2.8827584330     2.3918429675     0.3006135740
Bq        -2.8806344595     2.1309466654    -0.2396906073
Bq        -2.8831124285     2.4353256845     0.3906642709

1
2
3
4
5
6
7
8
9
10
11
12
13
14
15
16
17
18
19
20
21
22
23
24
25
26
27
28
29
30
31
32
33
34
35
36
37
38
39
40
41
42
43
44
45
46
47
48
49
50
51
52
53
54
55
56
57
58
59
60
61
62
63
64
65
66
67
68
69
70
71
72
73
74
75
76
77
78
79
80
81
82
83
84
85
86
87
88
89
90
91
92
93
94
95
96
97
98
99
100
101
102
103
104
105
106
107
108
109
110
111
112
113
114
115
116
117
118
119
120
121
122
123
124
125
126
127
128
129
130
131
132
133
134
135
136
137
138
139
140
141
142
143
144
145
146
147
148
149
150
151
152
153
154
155
156
157
158
159
160
161
162
163
164
165
166
167
168
169
170
171
172
173
174
175
176
177
178
179
180
181
182
183
184
185
186
187
188
189
190
191
192
193
194
195
196
197
198
199
200
201
202
203
204
205
206
207
208
209
210
211
212
213
214
215
216
217
218
219
220
221
222
223
224
225
226
227
228
229
230
231
232
233
234
235
236

