%nproc=8
%mem=1000MB
# rb3lyp/6-311+g** NMR geom=connectivity

Title

0 1
C    -4.0500558   -0.5771862    0.8136712
H    -5.0263804   -1.0082727    1.0024760
C    -3.9381552    0.6617804    0.2400876
H    -4.8252424    1.2338890   -0.0111295
C    -2.6768410    1.2433246    0.0057578
C    -1.4974121    0.5051527    0.2848253
C    -1.6508332   -0.7338728    0.9404026
H    -0.7713646   -1.2730967    1.2633753
C    -2.8898548   -1.2624035    1.1994307
H    -2.9683706   -2.2124563    1.7152676
C    -2.5773185    2.5963696   -0.4192930
H    -3.4870728    3.1412239   -0.6474055
C    -1.3741895    3.2147896   -0.4364030
H    -1.2997315    4.2742019   -0.6578144
C    -0.1719488    2.4994090   -0.1734588
C    -0.2043917    1.1018437    0.0192689
C     1.0513491    3.2042560   -0.0676222
H     1.0427344    4.2819499   -0.1896997
C     2.1942091    2.5487446    0.2579577
H     3.1168527    3.0912848    0.4334727
C     2.2216473    1.1336562    0.2934990
C     1.0486931    0.3945528    0.0302412
C     3.4483363    0.4614633    0.5573939
H     4.3095794    1.0606054    0.8334846
C     3.5427346   -0.8855926    0.4749463
H     4.4731467   -1.3939704    0.7038822
C     2.4490052   -1.6474447   -0.0196319
C     1.2150704   -1.0057258   -0.3013573
C     0.2531113   -1.7434440   -1.0216591
H    -0.6541356   -1.2535051   -1.3462847
C     0.4494193   -3.0628597   -1.3413779
H    -0.3083162   -3.5944309   -1.9054060
C     1.6251726   -3.7207967   -0.9552541
H     1.7670048   -4.7687404   -1.1927019
C     2.6109872   -3.0144177   -0.3183050
H     3.5525612   -3.4902813   -0.0646367
Bq        -2.1589280931     0.4809561106     0.9228995004
Bq        -2.1435601677     0.3827588411     0.5354448281
Bq        -2.1627700744     0.5055054280     1.0197631685
Bq        -2.1397181864     0.3582095237     0.4385811600
Bq        -2.1666120557     0.5300547454     1.1166268366
Bq        -2.1358762051     0.3336602064     0.3417174919
Bq        -2.1704540370     0.5546040627     1.2134905047
Bq        -2.1320342238     0.3091108890     0.2448538238
Bq        -2.1512441304     0.4318574759     0.7291721642
Bq        -2.1541131575     0.5533466252     0.8015058029
Bq        -2.1464291948     0.5042479904     0.6077784667
Bq        -2.1579551388     0.5778959425     0.8983694710
Bq        -2.1425872135     0.4796986730     0.5109147986
Bq        -2.1617971202     0.6024452599     0.9952331391
Bq        -2.1387452322     0.4551493557     0.4140511305
Bq        -2.1656391015     0.6269945773     1.0920968072
Bq        -2.1349032509     0.4306000383     0.3171874624
Bq        -2.1694810828     0.6515438947     1.1889604753
Bq        -2.1310612695     0.4060507209     0.2203237944
Bq        -2.1502711762     0.5287973078     0.7046421348
Bq        -2.1531402033     0.6502864571     0.7769757735
Bq        -2.1454562406     0.6011878224     0.5832484373
Bq        -2.1569821846     0.6748357745     0.8738394416
Bq        -2.1416142593     0.5766385050     0.4863847692
Bq        -2.1608241659     0.6993850919     0.9707031097
Bq        -2.1377722780     0.5520891876     0.3895211011
Bq        -2.1646661473     0.7239344092     1.0675667777
Bq        -2.1339302966     0.5275398702     0.2926574330
Bq        -2.1685081286     0.7484837266     1.1644304458
Bq        -2.1300883153     0.5029905529     0.1957937649
Bq        -2.1492982220     0.6257371397     0.6801121054
Bq        -2.1521672491     0.7472262890     0.7524457440
Bq        -2.1444832864     0.6981276543     0.5587184079
Bq        -2.1560092304     0.7717756064     0.8493094121
Bq        -2.1406413051     0.6735783369     0.4618547398
Bq        -2.1598512117     0.7963249238     0.9461730802
Bq        -2.1367993237     0.6490290195     0.3649910717
Bq        -2.1636931930     0.8208742412     1.0430367483
Bq        -2.1329573424     0.6244797022     0.2681274036
Bq        -2.1675351744     0.8454235585     1.1399004164
Bq        -2.1291153611     0.5999303848     0.1712637355
Bq        -2.1483252677     0.7226769717     0.6555820760
Bq        -2.1511942948     0.8441661210     0.7279157146
Bq        -2.1435103322     0.7950674862     0.5341883784
Bq        -2.1550362762     0.8687154384     0.8247793827
Bq        -2.1396683508     0.7705181689     0.4373247103
Bq        -2.1588782575     0.8932647557     0.9216430508
Bq        -2.1358263695     0.7459688515     0.3404610423
Bq        -2.1627202388     0.9178140731     1.0185067189
Bq        -2.1319843882     0.7214195341     0.2435973742
Bq        -2.1665622201     0.9423633905     1.1153703870
Bq        -2.1281424069     0.6968702167     0.1467337061
Bq        -2.1473523135     0.8196168036     0.6310520465
Bq        -2.1502213406     0.9411059529     0.7033856852
Bq        -2.1425373779     0.8920073182     0.5096583490
Bq        -2.1540633219     0.9656552703     0.8002493533
Bq        -2.1386953966     0.8674580008     0.4127946809
Bq        -2.1579053033     0.9902045877     0.8971130214
Bq        -2.1348534153     0.8429086834     0.3159310128
Bq        -2.1617472846     1.0147539051     0.9939766895
Bq        -2.1310114340     0.8183593660     0.2190673447
Bq        -2.1655892659     1.0393032224     1.0908403575
Bq        -2.1271694526     0.7938100487     0.1222036766
Bq        -2.1463793593     0.9165566355     0.6065220171
Bq        -2.1492483864     1.0380457849     0.6788556558
Bq        -2.1415644237     0.9889471501     0.4851283196
Bq        -2.1530903677     1.0625951022     0.7757193239
Bq        -2.1377224424     0.9643978327     0.3882646515
Bq        -2.1569323490     1.0871444196     0.8725829919
Bq        -2.1338804611     0.9398485154     0.2914009834
Bq        -2.1607743304     1.1116937370     0.9694466600
Bq        -2.1300384797     0.9152991980     0.1945373153
Bq        -2.1646163117     1.1362430544     1.0663103281
Bq        -2.1261964984     0.8907498806     0.0976736472
Bq        -2.1454064051     1.0134964675     0.5819919877
Bq        -2.1482754322     1.1349856168     0.6543256263
Bq        -2.1405914695     1.0858869821     0.4605982902
Bq        -2.1521174135     1.1595349342     0.7511892944
Bq        -2.1367494882     1.0613376647     0.3637346221
Bq        -2.1559593948     1.1840842516     0.8480529625
Bq        -2.1329075068     1.0367883473     0.2668709540
Bq        -2.1598013761     1.2086335689     0.9449166306
Bq        -2.1290655255     1.0122390299     0.1700072859
Bq        -2.1636433575     1.2331828863     1.0417802987
Bq        -2.1252235442     0.9876897125     0.0731436178
Bq        -2.1444334508     1.1104362994     0.5574619582
Bq        -2.1473024779     1.2319254487     0.6297955969
Bq        -2.1396185153     1.1828268140     0.4360682607
Bq        -2.1511444593     1.2564747661     0.7266592650
Bq        -2.1357765339     1.1582774966     0.3392045926
Bq        -2.1549864406     1.2810240835     0.8235229331
Bq        -2.1319345526     1.1337281792     0.2423409245
Bq        -2.1588284219     1.3055734009     0.9203866012
Bq        -2.1280925713     1.1091788619     0.1454772565
Bq        -2.1626704033     1.3301227182     1.0172502693
Bq        -2.1242505900     1.0846295445     0.0486135884
Bq        -2.1434604966     1.2073761314     0.5329319288
Bq        -2.1463295237     1.3288652807     0.6052655675
Bq        -2.1386455611     1.2797666459     0.4115382313
Bq        -2.1501715050     1.3534145981     0.7021292356
Bq        -2.1348035797     1.2552173286     0.3146745632
Bq        -2.1540134864     1.3779639154     0.7989929037
Bq        -2.1309615984     1.2306680112     0.2178108951
Bq        -2.1578554677     1.4025132328     0.8958565718
Bq        -2.1271196171     1.2061186938     0.1209472270
Bq        -2.1616974490     1.4270625502     0.9927202398
Bq        -2.1232776357     1.1815693764     0.0240835589
Bq        -2.1424875424     1.3043159633     0.5084018994
Bq        -2.1453565695     1.4258051126     0.5807355381
Bq        -2.1376726068     1.3767064779     0.3870082019
Bq        -2.1491985508     1.4503544300     0.6775992061
Bq        -2.1338306255     1.3521571605     0.2901445338
Bq        -2.1530405321     1.4749037474     0.7744628742
Bq        -2.1299886442     1.3276078431     0.1932808657
Bq        -2.1568825135     1.4994530647     0.8713265423
Bq        -2.1261466628     1.3030585257     0.0964171976
Bq        -2.1607244948     1.5240023821     0.9681902104
Bq        -2.1223046815     1.2785092084    -0.0004464705
Bq        -2.1415145882     1.4012557952     0.4838718700
Bq        -2.1443836153     1.5227449446     0.5562055086
Bq        -2.1366996526     1.4736463098     0.3624781724
Bq        -2.1482255966     1.5472942619     0.6530691767
Bq        -2.1328576713     1.4490969924     0.2656145044
Bq        -2.1520675779     1.5718435793     0.7499328448
Bq        -2.1290156899     1.4245476751     0.1687508363
Bq        -2.1559095592     1.5963928967     0.8467965129
Bq        -2.1251737086     1.3999983577     0.0718871682
Bq        -2.1597515406     1.6209422141     0.9436601810
Bq        -2.1213317273     1.3754490403    -0.0249764999
Bq        -2.1405416339     1.4981956272     0.4593418405
Bq        -2.1434106610     1.6196847765     0.5316754792
Bq        -2.1357266984     1.5705861417     0.3379481430
Bq        -2.1472526424     1.6442340939     0.6285391473
Bq        -2.1318847170     1.5460368244     0.2410844749
Bq        -2.1510946237     1.6687834113     0.7254028154
Bq        -2.1280427357     1.5214875070     0.1442208068
Bq        -2.1549366050     1.6933327286     0.8222664835
Bq        -2.1242007544     1.4969381896     0.0473571387
Bq        -2.1587785864     1.7178820460     0.9191301516
Bq        -2.1203587731     1.4723888722    -0.0495065293
Bq        -2.1395686797     1.5951354591     0.4348118111
Bq        -2.1424377068     1.7166246084     0.5071454498
Bq        -2.1347537442     1.6675259737     0.3134181136
Bq        -2.1462796881     1.7411739258     0.6040091179
Bq        -2.1309117628     1.6429766563     0.2165544455
Bq        -2.1501216695     1.7657232432     0.7008727860
Bq        -2.1270697815     1.6184273389     0.1196907774
Bq        -2.1539636508     1.7902725606     0.7977364540
Bq        -2.1232278002     1.5938780216     0.0228271093
Bq        -2.1578056321     1.8148218779     0.8946001221
Bq        -2.1193858188     1.5693287042    -0.0740365588
Bq        -2.1385957255     1.6920752911     0.4102817817
Bq        -2.1414647526     1.8135644404     0.4826154203
Bq        -2.1337807899     1.7644658056     0.2888880842
Bq        -2.1453067339     1.8381137578     0.5794790884
Bq        -2.1299388086     1.7399164882     0.1920244161
Bq        -2.1491487152     1.8626630751     0.6763427565
Bq        -2.1260968273     1.7153671709     0.0951607480
Bq        -2.1529906966     1.8872123925     0.7732064246
Bq        -2.1222548459     1.6908178535    -0.0017029201
Bq        -2.1568326779     1.9117617099     0.8700700927
Bq        -2.1184128646     1.6662685361    -0.0985665882
Bq        -2.1376227713     1.7890151230     0.3857517523
Bq        -2.1404917984     1.9105042723     0.4580853909
Bq        -2.1328078357     1.8614056376     0.2643580547
Bq        -2.1443337797     1.9350535897     0.5549490590
Bq        -2.1289658544     1.8368563202     0.1674943866
Bq        -2.1481757610     1.9596029071     0.6518127271
Bq        -2.1251238730     1.8123070028     0.0706307186
Bq        -2.1520177424     1.9841522244     0.7486763952
Bq        -2.1212818917     1.7877576854    -0.0262329495
Bq        -2.1558597237     2.0087015418     0.8455400633
Bq        -2.1174399104     1.7632083681    -0.1230966176
Bq        -2.1366498170     1.8859549549     0.3612217228
Bq        -2.1395188441     2.0074441043     0.4335553615
Bq        -2.1318348815     1.9583454695     0.2398280253
Bq        -2.1433608255     2.0319934216     0.5304190296
Bq        -2.1279929002     1.9337961521     0.1429643572
Bq        -2.1472028068     2.0565427390     0.6272826977
Bq        -2.1241509188     1.9092468348     0.0461006891
Bq        -2.1510447881     2.0810920564     0.7241463658
Bq        -2.1203089375     1.8846975174    -0.0507629790
Bq        -2.1548867695     2.1056413738     0.8210100339
Bq        -2.1164669562     1.8601482000    -0.1476266470
Bq        -2.1356768628     1.9828947869     0.3366916934
Bq        -2.1385458899     2.1043839362     0.4090253321
Bq        -2.1308619273     2.0552853014     0.2152979959
Bq        -2.1423878712     2.1289332536     0.5058890002
Bq        -2.1270199459     2.0307359841     0.1184343278
Bq        -2.1462298526     2.1534825709     0.6027526682
Bq        -2.1231779646     2.0061866667     0.0215706597
Bq        -2.1500718339     2.1780318883     0.6996163363
Bq        -2.1193359833     1.9816373493    -0.0752930084
Bq        -2.1539138152     2.2025812057     0.7964800044
Bq        -2.1154940019     1.9570880319    -0.1721566765
Bq        -2.1347039086     2.0798346188     0.3121616640
Bq        -2.1375729357     2.2013237681     0.3844953026
Bq        -2.1298889730     2.1522251334     0.1907679665
Bq        -2.1414149170     2.2258730855     0.4813589707
Bq        -2.1260469917     2.1276758160     0.0939042984

1
2
3
4
5
6
7
8
9
10
11
12
13
14
15
16
17
18
19
20
21
22
23
24
25
26
27
28
29
30
31
32
33
34
35
36
37
38
39
40
41
42
43
44
45
46
47
48
49
50
51
52
53
54
55
56
57
58
59
60
61
62
63
64
65
66
67
68
69
70
71
72
73
74
75
76
77
78
79
80
81
82
83
84
85
86
87
88
89
90
91
92
93
94
95
96
97
98
99
100
101
102
103
104
105
106
107
108
109
110
111
112
113
114
115
116
117
118
119
120
121
122
123
124
125
126
127
128
129
130
131
132
133
134
135
136
137
138
139
140
141
142
143
144
145
146
147
148
149
150
151
152
153
154
155
156
157
158
159
160
161
162
163
164
165
166
167
168
169
170
171
172
173
174
175
176
177
178
179
180
181
182
183
184
185
186
187
188
189
190
191
192
193
194
195
196
197
198
199
200
201
202
203
204
205
206
207
208
209
210
211
212
213
214
215
216
217
218
219
220
221
222
223
224
225
226
227
228
229
230
231
232
233
234
235
236

