%nproc=8
%mem=1000MB
# rb3lyp/6-311+g** NMR geom=connectivity

Title

0 1
C    -4.0500558   -0.5771862    0.8136712
H    -5.0263804   -1.0082727    1.0024760
C    -3.9381552    0.6617804    0.2400876
H    -4.8252424    1.2338890   -0.0111295
C    -2.6768410    1.2433246    0.0057578
C    -1.4974121    0.5051527    0.2848253
C    -1.6508332   -0.7338728    0.9404026
H    -0.7713646   -1.2730967    1.2633753
C    -2.8898548   -1.2624035    1.1994307
H    -2.9683706   -2.2124563    1.7152676
C    -2.5773185    2.5963696   -0.4192930
H    -3.4870728    3.1412239   -0.6474055
C    -1.3741895    3.2147896   -0.4364030
H    -1.2997315    4.2742019   -0.6578144
C    -0.1719488    2.4994090   -0.1734588
C    -0.2043917    1.1018437    0.0192689
C     1.0513491    3.2042560   -0.0676222
H     1.0427344    4.2819499   -0.1896997
C     2.1942091    2.5487446    0.2579577
H     3.1168527    3.0912848    0.4334727
C     2.2216473    1.1336562    0.2934990
C     1.0486931    0.3945528    0.0302412
C     3.4483363    0.4614633    0.5573939
H     4.3095794    1.0606054    0.8334846
C     3.5427346   -0.8855926    0.4749463
H     4.4731467   -1.3939704    0.7038822
C     2.4490052   -1.6474447   -0.0196319
C     1.2150704   -1.0057258   -0.3013573
C     0.2531113   -1.7434440   -1.0216591
H    -0.6541356   -1.2535051   -1.3462847
C     0.4494193   -3.0628597   -1.3413779
H    -0.3083162   -3.5944309   -1.9054060
C     1.6251726   -3.7207967   -0.9552541
H     1.7670048   -4.7687404   -1.1927019
C     2.6109872   -3.0144177   -0.3183050
H     3.5525612   -3.4902813   -0.0646367
Bq         2.9041378850     4.3500319818     1.0189069425
Bq         2.9909936032     4.3205510713     0.4259592550
Bq         2.8896619319     4.3549454668     1.1177315570
Bq         3.0054695563     4.3156375862     0.3271346404
Bq         2.8751859789     4.3598589519     1.2165561716
Bq         3.0199455093     4.3107241011     0.2283100258
Bq         2.9475657441     4.3352915265     0.7224330987
Bq         2.9964272178    -0.6537557573     1.0788314105
Bq         3.0253791239    -0.6635827274     0.8811821814
Bq         2.9819512648    -0.6488422722     1.1776560251
Bq         3.0398550770    -0.6684962125     0.7823575668
Bq         2.9674753117    -0.6439287871     1.2764806397
Bq         3.0543310300    -0.6734096976     0.6835329522
Bq         2.9529993587    -0.6390153020     1.3753052543
Bq         3.0688069830    -0.6783231827     0.5847083376
Bq         2.9385234057    -0.6341018169     1.4741298689
Bq         3.0832829361    -0.6832366678     0.4858837230
Bq         3.0109031709    -0.6586692423     0.9800067959
Bq         2.9971393518    -0.5538765419     1.0739698058
Bq         3.0260912579    -0.5637035121     0.8763205766
Bq         2.9826633987    -0.5489630568     1.1727944203
Bq         3.0405672109    -0.5686169971     0.7774959620
Bq         2.9681874457    -0.5440495717     1.2716190349
Bq         3.0550431639    -0.5735304822     0.6786713474
Bq         2.9537114926    -0.5391360866     1.3704436495
Bq         3.0695191170    -0.5784439673     0.5798467328
Bq         2.9392355396    -0.5342226016     1.4692682641
Bq         3.0839950700    -0.5833574524     0.4810221183
Bq         3.0116153048    -0.5587900270     0.9751451912
Bq         2.9978514857    -0.4539973265     1.0691082010
Bq         3.0268033918    -0.4638242967     0.8714589718
Bq         2.9833755327    -0.4490838414     1.1679328156
Bq         3.0412793448    -0.4687377818     0.7726343572
Bq         2.9688995796    -0.4441703563     1.2667574302
Bq         3.0557552979    -0.4736512668     0.6738097427
Bq         2.9544236266    -0.4392568713     1.3655820448
Bq         3.0702312509    -0.4785647519     0.5749851281
Bq         2.9399476735    -0.4343433862     1.4644066593
Bq         3.0847072040    -0.4834782370     0.4761605135
Bq         3.0123274388    -0.4589108116     0.9702835864
Bq         2.9985636197    -0.3541181111     1.0642465962
Bq         3.0275155257    -0.3639450813     0.8665973671
Bq         2.9840876666    -0.3492046261     1.1630712108
Bq         3.0419914788    -0.3688585664     0.7677727525
Bq         2.9696117136    -0.3442911410     1.2618958254
Bq         3.0564674318    -0.3737720515     0.6689481379
Bq         2.9551357605    -0.3393776559     1.3607204400
Bq         3.0709433849    -0.3786855365     0.5701235233
Bq         2.9406598075    -0.3344641708     1.4595450546
Bq         3.0854193379    -0.3835990216     0.4712989087
Bq         3.0130395727    -0.3590315962     0.9654219816
Bq         2.9992757536    -0.2542388958     1.0593849915
Bq         3.0282276597    -0.2640658659     0.8617357623
Bq         2.9847998006    -0.2493254107     1.1582096060
Bq         3.0427036127    -0.2689793510     0.7629111477
Bq         2.9703238475    -0.2444119256     1.2570342206
Bq         3.0571795658    -0.2738928361     0.6640865331
Bq         2.9558478945    -0.2394984405     1.3558588352
Bq         3.0716555188    -0.2788063212     0.5652619185
Bq         2.9413719414    -0.2345849554     1.4546834498
Bq         3.0861314719    -0.2837198063     0.4664373040
Bq         3.0137517066    -0.2591523808     0.9605603769
Bq         2.9999878875    -0.1543596804     1.0545233867
Bq         3.0289397936    -0.1641866505     0.8568741575
Bq         2.9855119345    -0.1494461953     1.1533480013
Bq         3.0434157467    -0.1691001356     0.7580495429
Bq         2.9710359814    -0.1445327102     1.2521726159
Bq         3.0578916997    -0.1740136207     0.6592249284
Bq         2.9565600284    -0.1396192251     1.3509972305
Bq         3.0723676528    -0.1789271058     0.5604003138
Bq         2.9420840754    -0.1347057400     1.4498218450
Bq         3.0868436058    -0.1838405909     0.4615756992
Bq         3.0144638406    -0.1592731655     0.9556987721
Bq         3.0007000215    -0.0544804650     1.0496617819
Bq         3.0296519276    -0.0643074352     0.8520125528
Bq         2.9862240684    -0.0495669799     1.1484863965
Bq         3.0441278806    -0.0692209203     0.7531879382
Bq         2.9717481154    -0.0446534948     1.2473110111
Bq         3.0586038337    -0.0741344053     0.6543633236
Bq         2.9572721623    -0.0397400098     1.3461356257
Bq         3.0730797867    -0.0790478904     0.5555387090
Bq         2.9427962093    -0.0348265247     1.4449602403
Bq         3.0875557397    -0.0839613755     0.4567140944
Bq         3.0151759745    -0.0593939501     0.9508371673
Bq         3.0014121554     0.0453987504     1.0448001772
Bq         3.0303640615     0.0355717802     0.8471509480
Bq         2.9869362024     0.0503122355     1.1436247917
Bq         3.0448400146     0.0306582951     0.7483263334
Bq         2.9724602493     0.0552257205     1.2424494063
Bq         3.0593159676     0.0257448100     0.6495017188
Bq         2.9579842963     0.0601392056     1.3412740209
Bq         3.0737919206     0.0208313250     0.5506771042
Bq         2.9435083432     0.0650526907     1.4400986355
Bq         3.0882678737     0.0159178399     0.4518524897
Bq         3.0158881085     0.0404852653     0.9459755626
Bq         3.0021242894     0.1452779658     1.0399385724
Bq         3.0310761955     0.1354509956     0.8422893432
Bq         2.9876483363     0.1501914508     1.1387631870
Bq         3.0455521485     0.1305375105     0.7434647286
Bq         2.9731723833     0.1551049359     1.2375878016
Bq         3.0600281015     0.1256240254     0.6446401141
Bq         2.9586964302     0.1600184210     1.3364124162
Bq         3.0745040546     0.1207105403     0.5458154995
Bq         2.9442204772     0.1649319061     1.4352370307
Bq         3.0889800076     0.1157970553     0.4469908849
Bq         3.0166002424     0.1403644807     0.9411139578
Bq         3.0028364233     0.2451571811     1.0350769676
Bq         3.0317883294     0.2353302110     0.8374277385
Bq         2.9883604703     0.2500706662     1.1339015822
Bq         3.0462642824     0.2304167259     0.7386031239
Bq         2.9738845172     0.2549841513     1.2327261968
Bq         3.0607402355     0.2255032408     0.6397785093
Bq         2.9594085642     0.2598976364     1.3315508114
Bq         3.0752161885     0.2205897557     0.5409538947
Bq         2.9449326111     0.2648111215     1.4303754260
Bq         3.0896921416     0.2156762706     0.4421292801
Bq         3.0173123763     0.2402436960     0.9362523530
Bq         3.0035485572     0.3450363965     1.0302153629
Bq         3.0325004633     0.3352094263     0.8325661337
Bq         2.9890726042     0.3499498816     1.1290399774
Bq         3.0469764164     0.3302959413     0.7337415191
Bq         2.9745966512     0.3548633667     1.2278645920
Bq         3.0614523694     0.3253824562     0.6349169045
Bq         2.9601206981     0.3597768518     1.3266892066
Bq         3.0759283225     0.3204689711     0.5360922899
Bq         2.9456447451     0.3646903368     1.4255138212
Bq         3.0904042755     0.3155554860     0.4372676754
Bq         3.0180245103     0.3401229114     0.9313907483
Bq         3.0042606912     0.4449156119     1.0253537581
Bq         3.0332125973     0.4350886417     0.8277045289
Bq         2.9897847381     0.4498290970     1.1241783727
Bq         3.0476885503     0.4301751566     0.7288799143
Bq         2.9753087851     0.4547425820     1.2230029873
Bq         3.0621645034     0.4252616716     0.6300552998
Bq         2.9608328321     0.4596560671     1.3218276019
Bq         3.0766404564     0.4203481865     0.5312306852
Bq         2.9463568790     0.4645695522     1.4206522164
Bq         3.0911164095     0.4154347014     0.4324060706
Bq         3.0187366442     0.4400021268     0.9265291435
Bq         3.0049728251     0.5447948273     1.0204921533
Bq         3.0339247312     0.5349678571     0.8228429242
Bq         2.9904968721     0.5497083123     1.1193167679
Bq         3.0484006843     0.5300543720     0.7240183096
Bq         2.9760209190     0.5546217974     1.2181413825
Bq         3.0628766373     0.5251408869     0.6251936950
Bq         2.9615449660     0.5595352825     1.3169659971
Bq         3.0773525903     0.5202274018     0.5263690804
Bq         2.9470690130     0.5644487676     1.4157906117
Bq         3.0918285434     0.5153139168     0.4275444658
Bq         3.0194487782     0.5398813422     0.9216675387
Bq         3.0056849591     0.6446740426     1.0156305486
Bq         3.0346368652     0.6348470725     0.8179813194
Bq         2.9912090060     0.6495875277     1.1144551632
Bq         3.0491128182     0.6299335874     0.7191567048
Bq         2.9767330530     0.6545010128     1.2132797777
Bq         3.0635887712     0.6250201023     0.6203320902
Bq         2.9622570999     0.6594144979     1.3121043923
Bq         3.0780647243     0.6201066172     0.5215074756
Bq         2.9477811469     0.6643279830     1.4109290069
Bq         3.0925406773     0.6151931321     0.4226828611
Bq         3.0201609121     0.6397605576     0.9168059340
Bq         3.0063970930     0.7445532580     1.0107689438
Bq         3.0353489991     0.7347262878     0.8131197146
Bq         2.9919211400     0.7494667431     1.1095935584
Bq         3.0498249521     0.7298128028     0.7142951000
Bq         2.9774451869     0.7543802282     1.2084181730
Bq         3.0643009052     0.7248993177     0.6154704855
Bq         2.9629692339     0.7592937133     1.3072427876
Bq         3.0787768582     0.7199858326     0.5166458709
Bq         2.9484932808     0.7642071983     1.4060674021
Bq         3.0932528113     0.7150723475     0.4178212563
Bq         3.0208730461     0.7396397729     0.9119443292
Bq         3.0071092270     0.8444324734     1.0059073390
Bq         3.0360611330     0.8346055032     0.8082581099
Bq         2.9926332739     0.8493459585     1.1047319536
Bq         3.0505370861     0.8296920181     0.7094334953
Bq         2.9781573209     0.8542594436     1.2035565682
Bq         3.0650130391     0.8247785331     0.6106088807
Bq         2.9636813678     0.8591729286     1.3023811828
Bq         3.0794889922     0.8198650480     0.5117842661
Bq         2.9492054148     0.8640864137     1.4012057974
Bq         3.0939649452     0.8149515629     0.4129596515
Bq         3.0215851800     0.8395189883     0.9070827244
Bq         3.0078213609     0.9443116888     1.0010457343
Bq         3.0367732670     0.9344847186     0.8033965051
Bq         2.9933454079     0.9492251739     1.0998703489
Bq         3.0512492200     0.9295712335     0.7045718905
Bq         2.9788694548     0.9541386589     1.1986949634
Bq         3.0657251731     0.9246577484     0.6057472759
Bq         2.9643935018     0.9590521440     1.2975195780
Bq         3.0802011261     0.9197442634     0.5069226613
Bq         2.9499175487     0.9639656291     1.3963441926
Bq         3.0946770792     0.9148307783     0.4080980468
Bq         3.0222973139     0.9393982037     0.9022211197
Bq         3.0085334948     1.0441909041     0.9961841295
Bq         3.0374854009     1.0343639340     0.7985349003
Bq         2.9940575418     1.0491043892     1.0950087441
Bq         3.0519613540     1.0294504489     0.6997102857
Bq         2.9795815887     1.0540178743     1.1938333587
Bq         3.0664373070     1.0245369638     0.6008856712

1
2
3
4
5
6
7
8
9
10
11
12
13
14
15
16
17
18
19
20
21
22
23
24
25
26
27
28
29
30
31
32
33
34
35
36
37
38
39
40
41
42
43
44
45
46
47
48
49
50
51
52
53
54
55
56
57
58
59
60
61
62
63
64
65
66
67
68
69
70
71
72
73
74
75
76
77
78
79
80
81
82
83
84
85
86
87
88
89
90
91
92
93
94
95
96
97
98
99
100
101
102
103
104
105
106
107
108
109
110
111
112
113
114
115
116
117
118
119
120
121
122
123
124
125
126
127
128
129
130
131
132
133
134
135
136
137
138
139
140
141
142
143
144
145
146
147
148
149
150
151
152
153
154
155
156
157
158
159
160
161
162
163
164
165
166
167
168
169
170
171
172
173
174
175
176
177
178
179
180
181
182
183
184
185
186
187
188
189
190
191
192
193
194
195
196
197
198
199
200
201
202
203
204
205
206
207
208
209
210
211
212
213
214
215
216
217
218
219
220
221
222
223
224
225
226
227
228
229
230
231
232
233
234
235
236

