%nproc=8
%mem=1000MB
# rb3lyp/6-311+g** NMR geom=connectivity

Title

0 1
C    -4.0500558   -0.5771862    0.8136712
H    -5.0263804   -1.0082727    1.0024760
C    -3.9381552    0.6617804    0.2400876
H    -4.8252424    1.2338890   -0.0111295
C    -2.6768410    1.2433246    0.0057578
C    -1.4974121    0.5051527    0.2848253
C    -1.6508332   -0.7338728    0.9404026
H    -0.7713646   -1.2730967    1.2633753
C    -2.8898548   -1.2624035    1.1994307
H    -2.9683706   -2.2124563    1.7152676
C    -2.5773185    2.5963696   -0.4192930
H    -3.4870728    3.1412239   -0.6474055
C    -1.3741895    3.2147896   -0.4364030
H    -1.2997315    4.2742019   -0.6578144
C    -0.1719488    2.4994090   -0.1734588
C    -0.2043917    1.1018437    0.0192689
C     1.0513491    3.2042560   -0.0676222
H     1.0427344    4.2819499   -0.1896997
C     2.1942091    2.5487446    0.2579577
H     3.1168527    3.0912848    0.4334727
C     2.2216473    1.1336562    0.2934990
C     1.0486931    0.3945528    0.0302412
C     3.4483363    0.4614633    0.5573939
H     4.3095794    1.0606054    0.8334846
C     3.5427346   -0.8855926    0.4749463
H     4.4731467   -1.3939704    0.7038822
C     2.4490052   -1.6474447   -0.0196319
C     1.2150704   -1.0057258   -0.3013573
C     0.2531113   -1.7434440   -1.0216591
H    -0.6541356   -1.2535051   -1.3462847
C     0.4494193   -3.0628597   -1.3413779
H    -0.3083162   -3.5944309   -1.9054060
C     1.6251726   -3.7207967   -0.9552541
H     1.7670048   -4.7687404   -1.1927019
C     2.6109872   -3.0144177   -0.3183050
H     3.5525612   -3.4902813   -0.0646367
Bq        -1.7839149340     0.8671412094     0.5969706454
Bq        -1.7849769207     0.9975893604     0.8671227360
Bq        -1.7835609384     0.8236584924     0.5069199485
Bq        -1.7853309163     1.0410720774     0.9571734329
Bq        -1.7832069429     0.7801757754     0.4168692516
Bq        -1.7856849119     1.0845547944     1.0472241298
Bq        -1.7828529473     0.7366930584     0.3268185547
Bq        -1.7860389074     1.1280375114     1.1372748267
Bq        -1.7824989517     0.6932103414     0.2367678578
Bq        -1.7842689296     0.9106239264     0.6870213422
Bq        -1.7844519929     1.0441580361     0.7335896581
Bq        -1.7837440017     0.9571926021     0.5534882643
Bq        -1.7848059884     1.0876407531     0.8236403550
Bq        -1.7833900061     0.9137098850     0.4634375674
Bq        -1.7851599840     1.1311234701     0.9136910519
Bq        -1.7830360106     0.8702271680     0.3733868706
Bq        -1.7855139796     1.1746061871     1.0037417487
Bq        -1.7826820150     0.8267444510     0.2833361737
Bq        -1.7858679752     1.2180889041     1.0937924456
Bq        -1.7823280194     0.7832617340     0.1932854768
Bq        -1.7840979973     1.0006753191     0.6435389612
Bq        -1.7842810606     1.1342094287     0.6901072771
Bq        -1.7835730694     1.0472439947     0.5100058833
Bq        -1.7846350562     1.1776921457     0.7801579739
Bq        -1.7832190739     1.0037612777     0.4199551864
Bq        -1.7849890517     1.2211748627     0.8702086708
Bq        -1.7828650783     0.9602785607     0.3299044895
Bq        -1.7853430473     1.2646575797     0.9602593677
Bq        -1.7825110827     0.9167958437     0.2398537926
Bq        -1.7856970429     1.3081402968     1.0503100646
Bq        -1.7821570872     0.8733131267     0.1498030958
Bq        -1.7839270650     1.0907267117     0.6000565802
Bq        -1.7841101283     1.2242608214     0.6466248960
Bq        -1.7834021372     1.1372953874     0.4665235023
Bq        -1.7844641239     1.2677435384     0.7366755929
Bq        -1.7830481416     1.0938126704     0.3764728054
Bq        -1.7848181195     1.3112262554     0.8267262898
Bq        -1.7826941460     1.0503299534     0.2864221085
Bq        -1.7851721150     1.3547089724     0.9167769867
Bq        -1.7823401505     1.0068472364     0.1963714116
Bq        -1.7855261106     1.3981916894     1.0068276836
Bq        -1.7819861549     0.9633645194     0.1063207147
Bq        -1.7837561327     1.1807781044     0.5565741991
Bq        -1.7839391960     1.3143122141     0.6031425150
Bq        -1.7832312049     1.2273467801     0.4230411212
Bq        -1.7842931916     1.3577949311     0.6931932119
Bq        -1.7828772093     1.1838640631     0.3329904243
Bq        -1.7846471872     1.4012776481     0.7832439088
Bq        -1.7825232138     1.1403813461     0.2429397275
Bq        -1.7850011828     1.4447603651     0.8732946056
Bq        -1.7821692182     1.0968986291     0.1528890306
Bq        -1.7853551783     1.4882430821     0.9633453025
Bq        -1.7818152226     1.0534159120     0.0628383337
Bq        -1.7835852005     1.2708294971     0.5130918181
Bq        -1.7837682638     1.4043636067     0.5596601340
Bq        -1.7830602726     1.3173981727     0.3795587402
Bq        -1.7841222593     1.4478463237     0.6497108308
Bq        -1.7827062771     1.2739154557     0.2895080433
Bq        -1.7844762549     1.4913290408     0.7397615277
Bq        -1.7823522815     1.2304327387     0.1994573464
Bq        -1.7848302505     1.5348117578     0.8298122246
Bq        -1.7819982859     1.1869500217     0.1094066495
Bq        -1.7851842461     1.5782944748     0.9198629215
Bq        -1.7816442903     1.1434673047     0.0193559527
Bq        -1.7834142682     1.3608808897     0.4696094371
Bq        -1.7835973315     1.4944149994     0.5161777529
Bq        -1.7828893404     1.4074495654     0.3360763592
Bq        -1.7839513271     1.5378977164     0.6062284498
Bq        -1.7825353448     1.3639668484     0.2460256623
Bq        -1.7843053226     1.5813804334     0.6962791467
Bq        -1.7821813492     1.3204841314     0.1559749654
Bq        -1.7846593182     1.6248631504     0.7863298436
Bq        -1.7818273536     1.2770014144     0.0659242685
Bq        -1.7850133138     1.6683458674     0.8763805405
Bq        -1.7814733581     1.2335186974    -0.0241264284
Bq        -1.7832433359     1.4509322824     0.4261270560
Bq        -1.7834263992     1.5844663921     0.4726953719
Bq        -1.7827184081     1.4975009581     0.2925939781
Bq        -1.7837803948     1.6279491091     0.5627460688
Bq        -1.7823644125     1.4540182411     0.2025432812
Bq        -1.7841343904     1.6714318261     0.6527967657
Bq        -1.7820104169     1.4105355241     0.1124925844
Bq        -1.7844883859     1.7149145431     0.7428474625
Bq        -1.7816564214     1.3670528071     0.0224418875
Bq        -1.7848423815     1.7583972601     0.8328981594
Bq        -1.7813024258     1.3235700901    -0.0676088094
Bq        -1.7830724037     1.5409836751     0.3826446750
Bq        -1.7832554670     1.6745177848     0.4292129909
Bq        -1.7825474758     1.5875523507     0.2491115971
Bq        -1.7836094625     1.7180005018     0.5192636877
Bq        -1.7821934802     1.5440696337     0.1590609002
Bq        -1.7839634581     1.7614832188     0.6093143846
Bq        -1.7818394847     1.5005869167     0.0690102033
Bq        -1.7843174537     1.8049659358     0.6993650815
Bq        -1.7814854891     1.4571041997    -0.0210404935
Bq        -1.7846714492     1.8484486528     0.7894157784
Bq        -1.7811314935     1.4136214827    -0.1110911904
Bq        -1.7829014714     1.6310350678     0.3391622940
Bq        -1.7830845347     1.7645691774     0.3857306098
Bq        -1.7823765435     1.6776037434     0.2056292161
Bq        -1.7834385303     1.8080518944     0.4757813067
Bq        -1.7820225480     1.6341210264     0.1155785192
Bq        -1.7837925258     1.8515346114     0.5658320036
Bq        -1.7816685524     1.5906383094     0.0255278223
Bq        -1.7841465214     1.8950173284     0.6558827005
Bq        -1.7813145568     1.5471555924    -0.0645228746
Bq        -1.7845005170     1.9385000454     0.7459333974
Bq        -1.7809605612     1.5036728754    -0.1545735715
Bq        -1.7827305391     1.7210864604     0.2956799129
Bq        -1.7829136024     1.8546205701     0.3422482288
Bq        -1.7822056113     1.7676551361     0.1621468350
Bq        -1.7832675980     1.8981032871     0.4322989257
Bq        -1.7818516157     1.7241724191     0.0720961382
Bq        -1.7836215936     1.9415860041     0.5223496226
Bq        -1.7814976201     1.6806897021    -0.0179545587
Bq        -1.7839755891     1.9850687211     0.6124003194
Bq        -1.7811436245     1.6372069851    -0.1080052556
Bq        -1.7843295847     2.0285514381     0.7024510163
Bq        -1.7807896290     1.5937242681    -0.1980559525
Bq        -1.7825596068     1.8111378531     0.2521975319
Bq        -1.7827426701     1.9446719628     0.2987658478
Bq        -1.7820346790     1.8577065288     0.1186644540
Bq        -1.7830966657     1.9881546798     0.3888165446
Bq        -1.7816806834     1.8142238118     0.0286137571
Bq        -1.7834506613     2.0316373968     0.4788672415
Bq        -1.7813266878     1.7707410947    -0.0614369398
Bq        -1.7838046569     2.0751201138     0.5689179384
Bq        -1.7809726923     1.7272583777    -0.1514876366
Bq        -1.7841586524     2.1186028308     0.6589686353
Bq        -1.7806186967     1.6837756607    -0.2415383335
Bq        -1.7823886746     1.9011892458     0.2087151509
Bq        -1.7825717379     2.0347233554     0.2552834667
Bq        -1.7818637467     1.9477579214     0.0751820730
Bq        -1.7829257334     2.0782060724     0.3453341636
Bq        -1.7815097511     1.9042752044    -0.0148686239
Bq        -1.7832797290     2.1216887894     0.4353848605
Bq        -1.7811557556     1.8607924874    -0.1049193208
Bq        -1.7836337246     2.1651715065     0.5254355574
Bq        -1.7808017600     1.8173097704    -0.1949700177
Bq        -1.7839877202     2.2086542235     0.6154862543
Bq        -1.7804477644     1.7738270534    -0.2850207146
Bq        -1.7822177423     1.9912406384     0.1652327699
Bq        -1.7824008056     2.1247747481     0.2118010857
Bq        -1.7816928144     2.0378093141     0.0316996919
Bq        -1.7827548012     2.1682574651     0.3018517826
Bq        -1.7813388189     1.9943265971    -0.0583510049
Bq        -1.7831087967     2.2117401821     0.3919024795
Bq        -1.7809848233     1.9508438801    -0.1484017018
Bq        -1.7834627923     2.2552228991     0.4819531764
Bq        -1.7806308277     1.9073611631    -0.2384523987
Bq        -1.7838167879     2.2987056161     0.5720038732
Bq        -1.7802768321     1.8638784461    -0.3285030956
Bq        -1.7820468100     2.0812920311     0.1217503888
Bq        -1.7822298733     2.2148261408     0.1683187047
Bq        -1.7815218822     2.1278607068    -0.0117826891
Bq        -1.7825838689     2.2583088578     0.2583694016
Bq        -1.7811678866     2.0843779898    -0.1018333860
Bq        -1.7829378645     2.3017915748     0.3484200984
Bq        -1.7808138910     2.0408952728    -0.1918840829
Bq        -1.7832918600     2.3452742918     0.4384707953
Bq        -1.7804598954     1.9974125558    -0.2819347797
Bq        -1.7836458556     2.3887570088     0.5285214922
Bq        -1.7801058999     1.9539298388    -0.3719854766
Bq        -1.7818758777     2.1713434238     0.0782680078
Bq        -1.7820589410     2.3048775334     0.1248363236
Bq        -1.7813509499     2.2179120994    -0.0552650701
Bq        -1.7824129366     2.3483602505     0.2148870205
Bq        -1.7809969543     2.1744293824    -0.1453157670
Bq        -1.7827669322     2.3918429675     0.3049377174
Bq        -1.7806429587     2.1309466654    -0.2353664639
Bq        -1.7831209278     2.4353256845     0.3949884143
Bq        -1.7802889632     2.0874639484    -0.3254171608
Bq        -1.7834749233     2.4788084015     0.4850391112
Bq        -1.7799349676     2.0439812314    -0.4154678577
Bq        -1.7817049455     2.2613948164     0.0347856268
Bq        -1.7818880088     2.3949289261     0.0813539426
Bq        -1.7811800176     2.3079634921    -0.0987474512
Bq        -1.7822420043     2.4384116431     0.1714046395
Bq        -1.7808260220     2.2644807751    -0.1887981480
Bq        -1.7825959999     2.4818943601     0.2614553364
Bq        -1.7804720265     2.2209980581    -0.2788488449
Bq        -1.7829499955     2.5253770771     0.3515060333
Bq        -1.7801180309     2.1775153411    -0.3688995418
Bq        -1.7833039911     2.5688597941     0.4415567301
Bq        -1.7797640353     2.1340326241    -0.4589502387
Bq        -1.7815340132     2.3514462091    -0.0086967543
Bq        -1.7817170765     2.4849803188     0.0378715616
Bq        -1.7810090853     2.3980148848    -0.1422298322
Bq        -1.7820710721     2.5284630358     0.1279222585
Bq        -1.7806550898     2.3545321678    -0.2322805291
Bq        -1.7824250676     2.5719457528     0.2179729553
Bq        -1.7803010942     2.3110494508    -0.3223312260
Bq        -1.7827790632     2.6154284698     0.3080236522
Bq        -1.7799470986     2.2675667338    -0.4123819228
Bq        -1.7831330588     2.6589111868     0.3980743491
Bq        -1.7795931030     2.2240840168    -0.5024326197
Bq        -1.7813630809     2.4414976018    -0.0521791353
Bq        -1.6902644629    -2.0175893147     2.2123837171
Bq        -1.6895564717    -2.1045547487     2.0322823234
Bq        -1.6906184584    -1.9741065977     2.3024344140

1
2
3
4
5
6
7
8
9
10
11
12
13
14
15
16
17
18
19
20
21
22
23
24
25
26
27
28
29
30
31
32
33
34
35
36
37
38
39
40
41
42
43
44
45
46
47
48
49
50
51
52
53
54
55
56
57
58
59
60
61
62
63
64
65
66
67
68
69
70
71
72
73
74
75
76
77
78
79
80
81
82
83
84
85
86
87
88
89
90
91
92
93
94
95
96
97
98
99
100
101
102
103
104
105
106
107
108
109
110
111
112
113
114
115
116
117
118
119
120
121
122
123
124
125
126
127
128
129
130
131
132
133
134
135
136
137
138
139
140
141
142
143
144
145
146
147
148
149
150
151
152
153
154
155
156
157
158
159
160
161
162
163
164
165
166
167
168
169
170
171
172
173
174
175
176
177
178
179
180
181
182
183
184
185
186
187
188
189
190
191
192
193
194
195
196
197
198
199
200
201
202
203
204
205
206
207
208
209
210
211
212
213
214
215
216
217
218
219
220
221
222
223
224
225
226
227
228
229
230
231
232
233
234
235
236

