%nproc=8
%mem=1000MB
# rb3lyp/6-311+g** NMR geom=connectivity

Title

0 1
C    -4.0500558   -0.5771862    0.8136712
H    -5.0263804   -1.0082727    1.0024760
C    -3.9381552    0.6617804    0.2400876
H    -4.8252424    1.2338890   -0.0111295
C    -2.6768410    1.2433246    0.0057578
C    -1.4974121    0.5051527    0.2848253
C    -1.6508332   -0.7338728    0.9404026
H    -0.7713646   -1.2730967    1.2633753
C    -2.8898548   -1.2624035    1.1994307
H    -2.9683706   -2.2124563    1.7152676
C    -2.5773185    2.5963696   -0.4192930
H    -3.4870728    3.1412239   -0.6474055
C    -1.3741895    3.2147896   -0.4364030
H    -1.2997315    4.2742019   -0.6578144
C    -0.1719488    2.4994090   -0.1734588
C    -0.2043917    1.1018437    0.0192689
C     1.0513491    3.2042560   -0.0676222
H     1.0427344    4.2819499   -0.1896997
C     2.1942091    2.5487446    0.2579577
H     3.1168527    3.0912848    0.4334727
C     2.2216473    1.1336562    0.2934990
C     1.0486931    0.3945528    0.0302412
C     3.4483363    0.4614633    0.5573939
H     4.3095794    1.0606054    0.8334846
C     3.5427346   -0.8855926    0.4749463
H     4.4731467   -1.3939704    0.7038822
C     2.4490052   -1.6474447   -0.0196319
C     1.2150704   -1.0057258   -0.3013573
C     0.2531113   -1.7434440   -1.0216591
H    -0.6541356   -1.2535051   -1.3462847
C     0.4494193   -3.0628597   -1.3413779
H    -0.3083162   -3.5944309   -1.9054060
C     1.6251726   -3.7207967   -0.9552541
H     1.7670048   -4.7687404   -1.1927019
C     2.6109872   -3.0144177   -0.3183050
H     3.5525612   -3.4902813   -0.0646367
Bq        -2.2229000542     3.6554212472     0.0125815974
Bq        -2.2152160915     3.6063226125    -0.1811457388
Bq        -2.2267420355     3.6799705646     0.1094452655
Bq        -2.2113741102     3.5817732951    -0.2780094069
Bq        -2.2305840168     3.7045198820     0.2063089335
Bq        -2.2075321288     3.5572239777    -0.3748730750
Bq        -2.2344259981     3.7290691993     0.3031726016
Bq        -2.2036901475     3.5326746603    -0.4717367431
Bq        -2.2382679795     3.7536185167     0.4000362697
Bq        -2.1998481662     3.5081253430    -0.5686004112
Bq        -2.2190580728     3.6308719298    -0.0842820707
Bq        -2.2219270999     3.7523610792    -0.0119484321
Bq        -2.2142431373     3.7032624444    -0.2056757682
Bq        -2.2257690813     3.7769103965     0.0849152360
Bq        -2.2104011559     3.6787131270    -0.3025394363
Bq        -2.2296110626     3.8014597139     0.1817789041
Bq        -2.2065591746     3.6541638097    -0.3994031044
Bq        -2.2334530439     3.8260090313     0.2786425722
Bq        -2.2027171933     3.6296144923    -0.4962667725
Bq        -2.2372950252     3.8505583487     0.3755062403
Bq        -2.1988752120     3.6050651749    -0.5931304406
Bq        -2.2180851186     3.7278117618    -0.1088121002
Bq        -2.2209541457     3.8493009111    -0.0364784615
Bq        -2.2132701830     3.8002022763    -0.2302057977
Bq        -2.2247961270     3.8738502285     0.0603852066
Bq        -2.2094282017     3.7756529590    -0.3270694658
Bq        -2.2286381084     3.8983995458     0.1572488747
Bq        -2.2055862204     3.7511036416    -0.4239331338
Bq        -2.2324800897     3.9229488632     0.2541125428
Bq        -2.2017442391     3.7265543242    -0.5207968019
Bq        -2.2363220710     3.9474981806     0.3509762109
Bq        -2.1979022577     3.7020050068    -0.6176604700
Bq        -2.2171121644     3.8247515937    -0.1333421296
Bq        -2.2199811915     3.9462407430    -0.0610084909
Bq        -2.2122972288     3.8971421083    -0.2547358271
Bq        -2.2238231728     3.9707900604     0.0358551772
Bq        -2.2084552475     3.8725927909    -0.3515994952
Bq        -2.2276651541     3.9953393778     0.1327188453
Bq        -2.2046132662     3.8480434735    -0.4484631633
Bq        -2.2315071355     4.0198886952     0.2295825134
Bq        -2.2007712848     3.8234941562    -0.5453268314
Bq        -2.2353491168     4.0444380125     0.3264461814
Bq        -2.1969293035     3.7989448388    -0.6421904995
Bq        -2.2161392102     3.9216914257    -0.1578721590
Bq        -2.2190082373     4.0431805750    -0.0855385203
Bq        -2.2113242746     3.9940819402    -0.2792658565
Bq        -2.2228502186     4.0677298924     0.0113251477
Bq        -2.2074822933     3.9695326228    -0.3761295246
Bq        -2.2266921999     4.0922792097     0.1081888158
Bq        -2.2036403119     3.9449833055    -0.4729931927
Bq        -2.2305341812     4.1168285271     0.2050524839
Bq        -2.1997983306     3.9204339881    -0.5698568608
Bq        -2.2343761626     4.1413778445     0.3019161520
Bq        -2.1959563493     3.8958846707    -0.6667205289
Bq        -2.2151662559     4.0186312576    -0.1824021884
Bq        -2.2180352830     4.1401204069    -0.1100685498
Bq        -2.2103513204     4.0910217722    -0.3037958859
Bq        -2.2218772644     4.1646697243    -0.0132048817
Bq        -2.2065093390     4.0664724548    -0.4006595540
Bq        -2.2257192457     4.1892190417     0.0836587864
Bq        -2.2026673577     4.0419231374    -0.4975232221
Bq        -2.2295612270     4.2137683590     0.1805224545
Bq        -2.1988253764     4.0173738200    -0.5943868902
Bq        -2.2334032084     4.2383176764     0.2773861226
Bq        -2.1949833951     3.9928245027    -0.6912505583
Bq        -2.2141933017     4.1155710895    -0.2069322179
Bq        -2.2170623288     4.2370602389    -0.1345985792
Bq        -2.2093783662     4.1879616041    -0.3283259154
Bq        -2.2209043101     4.2616095562    -0.0377349111
Bq        -2.2055363848     4.1634122867    -0.4251895835
Bq        -2.2247462915     4.2861588736     0.0591287570
Bq        -2.2016944035     4.1388629694    -0.5220532516
Bq        -2.2285882728     4.3107081910     0.1559924251
Bq        -2.1978524222     4.1143136520    -0.6189169196
Bq        -2.2324302541     4.3352575084     0.2528560932
Bq        -2.1940104408     4.0897643346    -0.7157805877
Bq        -2.2132203475     4.2125109215    -0.2314622473
Bq        -2.2160893746     4.3340000708    -0.1591286086
Bq        -2.2084054119     4.2849014360    -0.3528559448
Bq        -2.2199313559     4.3585493882    -0.0622649405
Bq        -2.2045634306     4.2603521187    -0.4497196129
Bq        -2.2237733372     4.3830987055     0.0345987276
Bq        -2.2007214493     4.2358028013    -0.5465832810
Bq        -2.2276153186     4.4076480229     0.1314623956
Bq        -2.1968794679     4.2112534839    -0.6434469491
Bq        -2.2314572999     4.4321973403     0.2283260637
Bq        -2.1930374866     4.1867041665    -0.7403106172
Bq        -2.2122473933     4.3094507534    -0.2559922767
Bq        -2.2151164204     4.4309399027    -0.1836586381
Bq        -2.2074324577     4.3818412680    -0.3773859742
Bq        -2.2189584017     4.4554892201    -0.0867949700
Bq        -2.2035904764     4.3572919506    -0.4742496423
Bq        -2.2228003830     4.4800385375     0.0100686981
Bq        -2.1997484950     4.3327426332    -0.5711133104
Bq        -2.2266423643     4.5045878549     0.1069323662
Bq        -2.1959065137     4.3081933159    -0.6679769785
Bq        -2.2304843457     4.5291371722     0.2037960343
Bq        -2.1920645324     4.2836439985    -0.7648406466
Bq        -2.2112744390     4.4063905854    -0.2805223061
Bq        -2.1638426997    -0.4160516942     1.0468060972
Bq        -2.1561587371    -0.4651503290     0.8530787610
Bq        -2.1676846811    -0.3915023768     1.1436697653
Bq        -2.1523167558    -0.4896996464     0.7562150929
Bq        -2.1715266624    -0.3669530595     1.2405334333
Bq        -2.1484747744    -0.5142489637     0.6593514248
Bq        -2.1753686437    -0.3424037421     1.3373971014
Bq        -2.1446327931    -0.5387982811     0.5624877567
Bq        -2.1792106251    -0.3178544247     1.4342607695
Bq        -2.1407908118    -0.5633475985     0.4656240886
Bq        -2.1600007184    -0.4406010116     0.9499424291
Bq        -2.1628697455    -0.3191118623     1.0222760677
Bq        -2.1551857829    -0.3682104970     0.8285487316
Bq        -2.1667117269    -0.2945625449     1.1191397358
Bq        -2.1513438015    -0.3927598144     0.7316850635
Bq        -2.1705537082    -0.2700132275     1.2160034039
Bq        -2.1475018202    -0.4173091318     0.6348213954
Bq        -2.1743956895    -0.2454639102     1.3128670720
Bq        -2.1436598389    -0.4418584492     0.5379577273
Bq        -2.1782376708    -0.2209145928     1.4097307401
Bq        -2.1398178576    -0.4664077665     0.4410940592
Bq        -2.1590277642    -0.3436611797     0.9254123997
Bq        -2.1618967913    -0.2221720303     0.9977460383
Bq        -2.1542128286    -0.2712706651     0.8040187021
Bq        -2.1657387726    -0.1976227130     1.0946097064
Bq        -2.1503708473    -0.2958199825     0.7071550340
Bq        -2.1695807540    -0.1730733956     1.1914733745
Bq        -2.1465288660    -0.3203692998     0.6102913660
Bq        -2.1734227353    -0.1485240782     1.2883370426
Bq        -2.1426868847    -0.3449186172     0.5134276979
Bq        -2.1772647166    -0.1239747608     1.3852007107
Bq        -2.1388449033    -0.3694679346     0.4165640298
Bq        -2.1580548100    -0.2467213477     0.9008823702
Bq        -2.1609238371    -0.1252321984     0.9732160089
Bq        -2.1532398744    -0.1743308332     0.7794886727
Bq        -2.1647658184    -0.1006828810     1.0700796770
Bq        -2.1493978931    -0.1988801505     0.6826250046
Bq        -2.1686077997    -0.0761335637     1.1669433451
Bq        -2.1455559118    -0.2234294679     0.5857613365
Bq        -2.1724497811    -0.0515842463     1.2638070132
Bq        -2.1417139304    -0.2479787853     0.4888976684
Bq        -2.1762917624    -0.0270349289     1.3606706812
Bq        -2.1378719491    -0.2725281027     0.3920340003
Bq        -2.1570818557    -0.1497815158     0.8763523408
Bq        -2.1599508829    -0.0282923665     0.9486859795
Bq        -2.1522669202    -0.0773910012     0.7549586433
Bq        -2.1637928642    -0.0037430491     1.0455496476
Bq        -2.1484249389    -0.1019403186     0.6580949752
Bq        -2.1676348455     0.0208062683     1.1424133156
Bq        -2.1445829575    -0.1264896360     0.5612313071
Bq        -2.1714768268     0.0453555857     1.2392769837
Bq        -2.1407409762    -0.1510389533     0.4643676390
Bq        -2.1753188082     0.0699049030     1.3361406518
Bq        -2.1368989949    -0.1755882707     0.3675039709
Bq        -2.1561089015    -0.0528416838     0.8518223114
Bq        -2.1589779286     0.0686474655     0.9241559500
Bq        -2.1512939660     0.0195488307     0.7304286139
Bq        -2.1628199100     0.0931967828     1.0210196181
Bq        -2.1474519846    -0.0050004867     0.6335649458
Bq        -2.1666618913     0.1177461002     1.1178832862
Bq        -2.1436100033    -0.0295498040     0.5367012777
Bq        -2.1705038726     0.1422954176     1.2147469543
Bq        -2.1397680220    -0.0540991214     0.4398376096
Bq        -2.1743458539     0.1668447350     1.3116106224
Bq        -2.1359260407    -0.0786484388     0.3429739415
Bq        -2.1551359473     0.0440981481     0.8272922819
Bq        -2.1580049744     0.1655872974     0.8996259206
Bq        -2.1503210117     0.1164886627     0.7058985844
Bq        -2.1618469557     0.1901366148     0.9964895887
Bq        -2.1464790304     0.0919393453     0.6090349163
Bq        -2.1656889371     0.2146859322     1.0933532568
Bq        -2.1426370491     0.0673900279     0.5121712482
Bq        -2.1695309184     0.2392352495     1.1902169249
Bq        -2.1387950678     0.0428407105     0.4153075802
Bq        -2.1733728997     0.2637845669     1.2870805930
Bq        -2.1349530864     0.0182913932     0.3184439121
Bq        -2.1541629931     0.1410379800     0.8027622525
Bq        -2.1570320202     0.2625271294     0.8750958912
Bq        -2.1493480575     0.2134284946     0.6813685550
Bq        -2.1608740015     0.2870764467     0.9719595593
Bq        -2.1455060762     0.1888791772     0.5845048869
Bq        -2.1647159828     0.3116257641     1.0688232274
Bq        -2.1416640949     0.1643298598     0.4876412188
Bq        -2.1685579642     0.3361750815     1.1656868954
Bq        -2.1378221135     0.1397805425     0.3907775507
Bq        -2.1723999455     0.3607243989     1.2625505635
Bq        -2.1339801322     0.1152312251     0.2939138826
Bq        -2.1531900388     0.2379778120     0.7782322231
Bq        -2.1560590660     0.3594669613     0.8505658618
Bq        -2.1483751033     0.3103683265     0.6568385256
Bq        -2.1599010473     0.3840162787     0.9474295298
Bq        -2.1445331220     0.2858190092     0.5599748575
Bq        -2.1637430286     0.4085655960     1.0442931979
Bq        -2.1406911406     0.2612696918     0.4631111894
Bq        -2.1675850099     0.4331149134     1.1411568660
Bq        -2.1368491593     0.2367203744     0.3662475213
Bq        -2.1714269913     0.4576642308     1.2380205341
Bq        -2.1330071780     0.2121710570     0.2693838532
Bq        -2.1522170846     0.3349176439     0.7537021937
Bq        -2.1550861117     0.4564067932     0.8260358323
Bq        -2.1474021491     0.4073081585     0.6323084961

1
2
3
4
5
6
7
8
9
10
11
12
13
14
15
16
17
18
19
20
21
22
23
24
25
26
27
28
29
30
31
32
33
34
35
36
37
38
39
40
41
42
43
44
45
46
47
48
49
50
51
52
53
54
55
56
57
58
59
60
61
62
63
64
65
66
67
68
69
70
71
72
73
74
75
76
77
78
79
80
81
82
83
84
85
86
87
88
89
90
91
92
93
94
95
96
97
98
99
100
101
102
103
104
105
106
107
108
109
110
111
112
113
114
115
116
117
118
119
120
121
122
123
124
125
126
127
128
129
130
131
132
133
134
135
136
137
138
139
140
141
142
143
144
145
146
147
148
149
150
151
152
153
154
155
156
157
158
159
160
161
162
163
164
165
166
167
168
169
170
171
172
173
174
175
176
177
178
179
180
181
182
183
184
185
186
187
188
189
190
191
192
193
194
195
196
197
198
199
200
201
202
203
204
205
206
207
208
209
210
211
212
213
214
215
216
217
218
219
220
221
222
223
224
225
226
227
228
229
230
231
232
233
234
235
236

