%nproc=8
%mem=1000MB
# rb3lyp/6-311+g** NMR geom=connectivity

Title

0 1
C    -4.0500558   -0.5771862    0.8136712
H    -5.0263804   -1.0082727    1.0024760
C    -3.9381552    0.6617804    0.2400876
H    -4.8252424    1.2338890   -0.0111295
C    -2.6768410    1.2433246    0.0057578
C    -1.4974121    0.5051527    0.2848253
C    -1.6508332   -0.7338728    0.9404026
H    -0.7713646   -1.2730967    1.2633753
C    -2.8898548   -1.2624035    1.1994307
H    -2.9683706   -2.2124563    1.7152676
C    -2.5773185    2.5963696   -0.4192930
H    -3.4870728    3.1412239   -0.6474055
C    -1.3741895    3.2147896   -0.4364030
H    -1.2997315    4.2742019   -0.6578144
C    -0.1719488    2.4994090   -0.1734588
C    -0.2043917    1.1018437    0.0192689
C     1.0513491    3.2042560   -0.0676222
H     1.0427344    4.2819499   -0.1896997
C     2.1942091    2.5487446    0.2579577
H     3.1168527    3.0912848    0.4334727
C     2.2216473    1.1336562    0.2934990
C     1.0486931    0.3945528    0.0302412
C     3.4483363    0.4614633    0.5573939
H     4.3095794    1.0606054    0.8334846
C     3.5427346   -0.8855926    0.4749463
H     4.4731467   -1.3939704    0.7038822
C     2.4490052   -1.6474447   -0.0196319
C     1.2150704   -1.0057258   -0.3013573
C     0.2531113   -1.7434440   -1.0216591
H    -0.6541356   -1.2535051   -1.3462847
C     0.4494193   -3.0628597   -1.3413779
H    -0.3083162   -3.5944309   -1.9054060
C     1.6251726   -3.7207967   -0.9552541
H     1.7670048   -4.7687404   -1.1927019
C     2.6109872   -3.0144177   -0.3183050
H     3.5525612   -3.4902813   -0.0646367
Bq        -0.0082378387     4.0664724548    -0.3134677490
Bq        -0.0274477454     4.1892190417     0.1708505914
Bq        -0.0043958574     4.0419231374    -0.4103314171
Bq        -0.0312897267     4.2137683590     0.2677142595
Bq        -0.0005538761     4.0173738200    -0.5071950852
Bq        -0.0351317080     4.2383176764     0.3645779276
Bq         0.0032881053     3.9928245027    -0.6040587533
Bq        -0.0159218014     4.1155710895    -0.1197404128
Bq        -0.0187908285     4.2370602389    -0.0474067742
Bq        -0.0111068658     4.1879616041    -0.2411341104
Bq        -0.0226328098     4.2616095562     0.0494568939
Bq        -0.0072648845     4.1634122867    -0.3379977785
Bq        -0.0264747911     4.2861588736     0.1463205620
Bq        -0.0034229032     4.1388629694    -0.4348614465
Bq        -0.0303167725     4.3107081910     0.2431842301
Bq         0.0004190782     4.1143136520    -0.5317251146
Bq        -0.0341587538     4.3352575084     0.3400478982
Bq         0.0042610595     4.0897643346    -0.6285887827
Bq        -0.0149488472     4.2125109215    -0.1442704423
Bq        -0.0178178743     4.3340000708    -0.0719368036
Bq        -0.0101339116     4.2849014360    -0.2656641398
Bq        -0.0216598556     4.3585493882     0.0249268645
Bq        -0.0062919303     4.2603521187    -0.3625278079
Bq        -0.0255018369     4.3830987055     0.1217905326
Bq        -0.0024499489     4.2358028013    -0.4593914760
Bq        -0.0293438182     4.4076480229     0.2186542007
Bq         0.0013920324     4.2112534839    -0.5562551441
Bq        -0.0331857996     4.4321973403     0.3155178687
Bq         0.0052340137     4.1867041665    -0.6531188122
Bq        -0.0139758929     4.3094507534    -0.1688004717
Bq        -0.0168449200     4.4309399027    -0.0964668330
Bq        -0.0091609574     4.3818412680    -0.2901941692
Bq        -0.0206869014     4.4554892201     0.0003968350
Bq        -0.0053189760     4.3572919506    -0.3870578373
Bq        -0.0245288827     4.4800385375     0.0972605031
Bq        -0.0014769947     4.3327426332    -0.4839215054
Bq        -0.0283708640     4.5045878549     0.1941241712
Bq         0.0023649866     4.3081933159    -0.5807851735
Bq        -0.0322128454     4.5291371722     0.2909878393
Bq         0.0062069679     4.2836439985    -0.6776488416
Bq        -0.0130029387     4.4063905854    -0.1933305011
Bq         0.0344288006    -0.4160516942     1.1339979022
Bq         0.0421127632    -0.4651503290     0.9402705660
Bq         0.0305868192    -0.3915023768     1.2308615703
Bq         0.0459547446    -0.4896996464     0.8434068979
Bq         0.0267448379    -0.3669530595     1.3277252384
Bq         0.0497967259    -0.5142489637     0.7465432298
Bq         0.0229028566    -0.3424037421     1.4245889064
Bq         0.0536387072    -0.5387982811     0.6496795617
Bq         0.0190608753    -0.3178544247     1.5214525745
Bq         0.0574806885    -0.5633475985     0.5528158936
Bq         0.0382707819    -0.4406010116     1.0371342341
Bq         0.0354017548    -0.3191118623     1.1094678728
Bq         0.0430857175    -0.3682104970     0.9157405366
Bq         0.0315597735    -0.2945625449     1.2063315408
Bq         0.0469276988    -0.3927598144     0.8188768685
Bq         0.0277177921    -0.2700132275     1.3031952089
Bq         0.0507696801    -0.4173091318     0.7220132004
Bq         0.0238758108    -0.2454639102     1.4000588770
Bq         0.0546116614    -0.4418584492     0.6251495323
Bq         0.0200338295    -0.2209145928     1.4969225451
Bq         0.0584536428    -0.4664077665     0.5282858642
Bq         0.0392437361    -0.3436611797     1.0126042047
Bq         0.0363747090    -0.2221720303     1.0849378433
Bq         0.0440586717    -0.2712706651     0.8912105071
Bq         0.0325327277    -0.1976227130     1.1818015114
Bq         0.0479006530    -0.2958199825     0.7943468391
Bq         0.0286907464    -0.1730733956     1.2786651795
Bq         0.0517426343    -0.3203692998     0.6974831710
Bq         0.0248487650    -0.1485240782     1.3755288476
Bq         0.0555846157    -0.3449186172     0.6006195029
Bq         0.0210067837    -0.1239747608     1.4723925157
Bq         0.0594265970    -0.3694679346     0.5037558348
Bq         0.0402166904    -0.2467213477     0.9880741752
Bq         0.0373476632    -0.1252321984     1.0604078139
Bq         0.0450316259    -0.1743308332     0.8666804777
Bq         0.0335056819    -0.1006828810     1.1572714820
Bq         0.0488736072    -0.1988801505     0.7698168096
Bq         0.0296637006    -0.0761335637     1.2541351501
Bq         0.0527155886    -0.2234294679     0.6729531415
Bq         0.0258217193    -0.0515842463     1.3509988182
Bq         0.0565575699    -0.2479787853     0.5760894734
Bq         0.0219797379    -0.0270349289     1.4478624863
Bq         0.0603995512    -0.2725281027     0.4792258054
Bq         0.0411896446    -0.1497815158     0.9635441458
Bq         0.0383206175    -0.0282923665     1.0358777845
Bq         0.0460045801    -0.0773910012     0.8421504483
Bq         0.0344786361    -0.0037430491     1.1327414526
Bq         0.0498465615    -0.1019403186     0.7452867802
Bq         0.0306366548     0.0208062683     1.2296051207
Bq         0.0536885428    -0.1264896360     0.6484231121
Bq         0.0267946735     0.0453555857     1.3264687887
Bq         0.0575305241    -0.1510389533     0.5515594440
Bq         0.0229526922     0.0699049030     1.4233324568
Bq         0.0613725054    -0.1755882707     0.4546957759
Bq         0.0421625988    -0.0528416838     0.9390141164
Bq         0.0392935717     0.0686474655     1.0113477550
Bq         0.0469775344     0.0195488307     0.8176204189
Bq         0.0354515904     0.0931967828     1.1082114231
Bq         0.0508195157    -0.0050004867     0.7207567508
Bq         0.0316096090     0.1177461002     1.2050750912
Bq         0.0546614970    -0.0295498040     0.6238930827
Bq         0.0277676277     0.1422954176     1.3019387593
Bq         0.0585034783    -0.0540991214     0.5270294146
Bq         0.0239256464     0.1668447350     1.3988024274
Bq         0.0623454597    -0.0786484388     0.4301657465
Bq         0.0431355530     0.0440981481     0.9144840870
Bq         0.0402665259     0.1655872974     0.9868177256
Bq         0.0479504886     0.1164886627     0.7930903894
Bq         0.0364245446     0.1901366148     1.0836813937
Bq         0.0517924699     0.0919393453     0.6962267213
Bq         0.0325825633     0.2146859322     1.1805450618
Bq         0.0556344512     0.0673900279     0.5993630533
Bq         0.0287405819     0.2392352495     1.2774087299
Bq         0.0594764326     0.0428407105     0.5024993852
Bq         0.0248986006     0.2637845669     1.3742723980
Bq         0.0633184139     0.0182913932     0.4056357171
Bq         0.0441085073     0.1410379800     0.8899540575
Bq         0.0412394801     0.2625271294     0.9622876962
Bq         0.0489234428     0.2134284946     0.7685603600
Bq         0.0373974988     0.2870764467     1.0591513643
Bq         0.0527654241     0.1888791772     0.6716966919
Bq         0.0335555175     0.3116257641     1.1560150324
Bq         0.0566074055     0.1643298598     0.5748330238
Bq         0.0297135362     0.3361750815     1.2528787005
Bq         0.0604493868     0.1397805425     0.4779693557
Bq         0.0258715548     0.3607243989     1.3497423685
Bq         0.0642913681     0.1152312251     0.3811056876
Bq         0.0450814615     0.2379778120     0.8654240281
Bq         0.0422124344     0.3594669613     0.9377576668
Bq         0.0498963970     0.3103683265     0.7440303306
Bq         0.0383704530     0.3840162787     1.0346213349
Bq         0.0537383784     0.2858190092     0.6471666625
Bq         0.0345284717     0.4085655960     1.1314850029
Bq         0.0575803597     0.2612696918     0.5503029944
Bq         0.0306864904     0.4331149134     1.2283486710
Bq         0.0614223410     0.2367203744     0.4534393263
Bq         0.0268445091     0.4576642308     1.3252123391
Bq         0.0652643223     0.2121710570     0.3565756582
Bq         0.0460544157     0.3349176439     0.8408939987
Bq         0.0431853886     0.4564067932     0.9132276373
Bq         0.0508693513     0.4073081585     0.7195003012
Bq         0.0393434073     0.4809561106     1.0100913054
Bq         0.0547113326     0.3827588411     0.6226366331
Bq         0.0355014259     0.5055054280     1.1069549735
Bq         0.0585533139     0.3582095237     0.5257729650
Bq         0.0316594446     0.5300547454     1.2038186416
Bq         0.0623952952     0.3336602064     0.4289092969
Bq         0.0278174633     0.5546040627     1.3006823097
Bq         0.0662372766     0.3091108890     0.3320456288
Bq         0.0470273699     0.4318574759     0.8163639692
Bq         0.0441583428     0.5533466252     0.8886976079
Bq         0.0518423055     0.5042479904     0.6949702717
Bq         0.0403163615     0.5778959425     0.9855612760
Bq         0.0556842868     0.4796986730     0.5981066036
Bq         0.0364743802     0.6024452599     1.0824249441
Bq         0.0595262681     0.4551493557     0.5012429355
Bq         0.0326323988     0.6269945773     1.1792886122
Bq         0.0633682495     0.4306000383     0.4043792675
Bq         0.0287904175     0.6515438947     1.2761522803
Bq         0.0672102308     0.4060507209     0.3075155994
Bq         0.0480003241     0.5287973078     0.7918339398
Bq         0.0451312970     0.6502864571     0.8641675785
Bq         0.0528152597     0.6011878224     0.6704402423
Bq         0.0412893157     0.6748357745     0.9610312466
Bq         0.0566572410     0.5766385050     0.5735765742
Bq         0.0374473344     0.6993850919     1.0578949147
Bq         0.0604992224     0.5520891876     0.4767129061
Bq         0.0336053531     0.7239344092     1.1547585828
Bq         0.0643412037     0.5275398702     0.3798492380
Bq         0.0297633717     0.7484837266     1.2516222508
Bq         0.0681831850     0.5029905529     0.2829855699
Bq         0.0489732784     0.6257371397     0.7673039104
Bq         0.0461042513     0.7472262890     0.8396375491
Bq         0.0537882139     0.6981276543     0.6459102129
Bq         0.0422622699     0.7717756064     0.9365012171
Bq         0.0576301953     0.6735783369     0.5490465448
Bq         0.0384202886     0.7963249238     1.0333648852
Bq         0.0614721766     0.6490290195     0.4521828767
Bq         0.0345783073     0.8208742412     1.1302285533
Bq         0.0653141579     0.6244797022     0.3553192086
Bq         0.0307363260     0.8454235585     1.2270922214
Bq         0.0691561392     0.5999303848     0.2584555405
Bq         0.0499462326     0.7226769717     0.7427738810
Bq         0.0470772055     0.8441661210     0.8151075196
Bq         0.0547611682     0.7950674862     0.6213801834
Bq         0.0432352242     0.8687154384     0.9119711877
Bq         0.0586031495     0.7705181689     0.5245165154
Bq         0.0393932428     0.8932647557     1.0088348558
Bq         0.0624451308     0.7459688515     0.4276528473
Bq         0.0355512615     0.9178140731     1.1056985239
Bq         0.0662871121     0.7214195341     0.3307891792
Bq         0.0317092802     0.9423633905     1.2025621920
Bq         0.0701290935     0.6968702167     0.2339255111
Bq         0.0509191868     0.8196168036     0.7182438515
Bq         0.0480501597     0.9411059529     0.7905774902
Bq         0.0557341224     0.8920073182     0.5968501540
Bq         0.0442081784     0.9656552703     0.8874411583
Bq         0.0595761037     0.8674580008     0.4999864859
Bq         0.0403661971     0.9902045877     0.9843048264

1
2
3
4
5
6
7
8
9
10
11
12
13
14
15
16
17
18
19
20
21
22
23
24
25
26
27
28
29
30
31
32
33
34
35
36
37
38
39
40
41
42
43
44
45
46
47
48
49
50
51
52
53
54
55
56
57
58
59
60
61
62
63
64
65
66
67
68
69
70
71
72
73
74
75
76
77
78
79
80
81
82
83
84
85
86
87
88
89
90
91
92
93
94
95
96
97
98
99
100
101
102
103
104
105
106
107
108
109
110
111
112
113
114
115
116
117
118
119
120
121
122
123
124
125
126
127
128
129
130
131
132
133
134
135
136
137
138
139
140
141
142
143
144
145
146
147
148
149
150
151
152
153
154
155
156
157
158
159
160
161
162
163
164
165
166
167
168
169
170
171
172
173
174
175
176
177
178
179
180
181
182
183
184
185
186
187
188
189
190
191
192
193
194
195
196
197
198
199
200
201
202
203
204
205
206
207
208
209
210
211
212
213
214
215
216
217
218
219
220
221
222
223
224
225
226
227
228
229
230
231
232
233
234
235
236

