%nproc=8
%mem=1000MB
# rb3lyp/6-311+g** NMR geom=connectivity

Title

0 1
C    -4.0500558   -0.5771862    0.8136712
H    -5.0263804   -1.0082727    1.0024760
C    -3.9381552    0.6617804    0.2400876
H    -4.8252424    1.2338890   -0.0111295
C    -2.6768410    1.2433246    0.0057578
C    -1.4974121    0.5051527    0.2848253
C    -1.6508332   -0.7338728    0.9404026
H    -0.7713646   -1.2730967    1.2633753
C    -2.8898548   -1.2624035    1.1994307
H    -2.9683706   -2.2124563    1.7152676
C    -2.5773185    2.5963696   -0.4192930
H    -3.4870728    3.1412239   -0.6474055
C    -1.3741895    3.2147896   -0.4364030
H    -1.2997315    4.2742019   -0.6578144
C    -0.1719488    2.4994090   -0.1734588
C    -0.2043917    1.1018437    0.0192689
C     1.0513491    3.2042560   -0.0676222
H     1.0427344    4.2819499   -0.1896997
C     2.1942091    2.5487446    0.2579577
H     3.1168527    3.0912848    0.4334727
C     2.2216473    1.1336562    0.2934990
C     1.0486931    0.3945528    0.0302412
C     3.4483363    0.4614633    0.5573939
H     4.3095794    1.0606054    0.8334846
C     3.5427346   -0.8855926    0.4749463
H     4.4731467   -1.3939704    0.7038822
C     2.4490052   -1.6474447   -0.0196319
C     1.2150704   -1.0057258   -0.3013573
C     0.2531113   -1.7434440   -1.0216591
H    -0.6541356   -1.2535051   -1.3462847
C     0.4494193   -3.0628597   -1.3413779
H    -0.3083162   -3.5944309   -1.9054060
C     1.6251726   -3.7207967   -0.9552541
H     1.7670048   -4.7687404   -1.1927019
C     2.6109872   -3.0144177   -0.3183050
H     3.5525612   -3.4902813   -0.0646367
Bq        -0.6288986683     4.3402050116     0.2994931924
Bq        -0.5999467622     4.3303780414     0.1018439632
Bq        -0.6433746214     4.3451184967     0.3983178070
Bq        -0.5854708092     4.3254645563     0.0030193486
Bq        -0.6578505744     4.3500319818     0.4971424216
Bq        -0.5709948562     4.3205510713    -0.0958052659
Bq        -0.6723265275     4.3549454668     0.5959670361
Bq        -0.5565189031     4.3156375862    -0.1946298805
Bq        -0.6868024805     4.3598589519     0.6947916507
Bq        -0.5420429501     4.3107241011    -0.2934544951
Bq        -0.6144227153     4.3352915265     0.2006685778
Bq        -0.5655612415    -0.6537557573     0.5570668896
Bq        -0.5366093355    -0.6635827274     0.3594176605
Bq        -0.5800371946    -0.6488422722     0.6558915042
Bq        -0.5221333824    -0.6684962125     0.2605930459
Bq        -0.5945131476    -0.6439287871     0.7547161188
Bq        -0.5076574294    -0.6734096976     0.1617684313
Bq        -0.6089891007    -0.6390153020     0.8535407334
Bq        -0.4931814763    -0.6783231827     0.0629438167
Bq        -0.6234650537    -0.6341018169     0.9523653480
Bq        -0.4787055233    -0.6832366678    -0.0358807979
Bq        -0.5510852885    -0.6586692423     0.4582422750
Bq        -0.5648491076    -0.5538765419     0.5522052849
Bq        -0.5358972015    -0.5637035121     0.3545560557
Bq        -0.5793250607    -0.5489630568     0.6510298994
Bq        -0.5214212485    -0.5686169971     0.2557314411
Bq        -0.5938010137    -0.5440495717     0.7498545140
Bq        -0.5069452954    -0.5735304822     0.1569068265
Bq        -0.6082769667    -0.5391360866     0.8486791286
Bq        -0.4924693424    -0.5784439673     0.0580822119
Bq        -0.6227529198    -0.5342226016     0.9475037432
Bq        -0.4779933893    -0.5833574524    -0.0407424026
Bq        -0.5503731546    -0.5587900270     0.4533806703
Bq        -0.5641369737    -0.4539973265     0.5473436801
Bq        -0.5351850676    -0.4638242967     0.3496944509
Bq        -0.5786129267    -0.4490838414     0.6461682947
Bq        -0.5207091145    -0.4687377818     0.2508698363
Bq        -0.5930888798    -0.4441703563     0.7449929093
Bq        -0.5062331615    -0.4736512668     0.1520452218
Bq        -0.6075648328    -0.4392568713     0.8438175238
Bq        -0.4917572084    -0.4785647519     0.0532206072
Bq        -0.6220407858    -0.4343433862     0.9426421384
Bq        -0.4772812554    -0.4834782370    -0.0456040074
Bq        -0.5496610206    -0.4589108116     0.4485190655
Bq        -0.5634248397    -0.3541181111     0.5424820753
Bq        -0.5344729336    -0.3639450813     0.3448328462
Bq        -0.5779007928    -0.3492046261     0.6413066899
Bq        -0.5199969806    -0.3688585664     0.2460082316
Bq        -0.5923767458    -0.3442911410     0.7401313045
Bq        -0.5055210275    -0.3737720515     0.1471836170
Bq        -0.6068526989    -0.3393776559     0.8389559191
Bq        -0.4910450745    -0.3786855365     0.0483590024
Bq        -0.6213286519    -0.3344641708     0.9377805337
Bq        -0.4765691215    -0.3835990216    -0.0504656122
Bq        -0.5489488867    -0.3590315962     0.4436574607
Bq        -0.5627127058    -0.2542388958     0.5376204706
Bq        -0.5337607997    -0.2640658659     0.3399712414
Bq        -0.5771886588    -0.2493254107     0.6364450851
Bq        -0.5192848466    -0.2689793510     0.2411466268
Bq        -0.5916646119    -0.2444119256     0.7352696997
Bq        -0.5048088936    -0.2738928361     0.1423220122
Bq        -0.6061405649    -0.2394984405     0.8340943143
Bq        -0.4903329406    -0.2788063212     0.0434973976
Bq        -0.6206165180    -0.2345849554     0.9329189289
Bq        -0.4758569875    -0.2837198063    -0.0553272169
Bq        -0.5482367527    -0.2591523808     0.4387958560
Bq        -0.5620005718    -0.1543596804     0.5327588658
Bq        -0.5330486658    -0.1641866505     0.3351096366
Bq        -0.5764765249    -0.1494461953     0.6315834804
Bq        -0.5185727127    -0.1691001356     0.2362850220
Bq        -0.5909524779    -0.1445327102     0.7304080950
Bq        -0.5040967597    -0.1740136207     0.1374604075
Bq        -0.6054284310    -0.1396192251     0.8292327095
Bq        -0.4896208066    -0.1789271058     0.0386357929
Bq        -0.6199043840    -0.1347057400     0.9280573241
Bq        -0.4751448536    -0.1838405909    -0.0601888217
Bq        -0.5475246188    -0.1592731655     0.4339342512
Bq        -0.5612884379    -0.0544804650     0.5278972610
Bq        -0.5323365318    -0.0643074352     0.3302480319
Bq        -0.5757643909    -0.0495669799     0.6267218756
Bq        -0.5178605788    -0.0692209203     0.2314234173
Bq        -0.5902403440    -0.0446534948     0.7255464902
Bq        -0.5033846257    -0.0741344053     0.1325988027
Bq        -0.6047162970    -0.0397400098     0.8243711048
Bq        -0.4889086727    -0.0790478904     0.0337741881
Bq        -0.6191922501    -0.0348265247     0.9231957194
Bq        -0.4744327196    -0.0839613755    -0.0650504265
Bq        -0.5468124849    -0.0593939501     0.4290726464
Bq        -0.5605763040     0.0453987504     0.5230356563
Bq        -0.5316243979     0.0355717802     0.3253864271
Bq        -0.5750522570     0.0503122355     0.6218602708
Bq        -0.5171484448     0.0306582951     0.2265618125
Bq        -0.5895282100     0.0552257205     0.7206848854
Bq        -0.5026724918     0.0257448100     0.1277371979
Bq        -0.6040041631     0.0601392056     0.8195095000
Bq        -0.4881965387     0.0208313250     0.0289125833
Bq        -0.6184801161     0.0650526907     0.9183341146
Bq        -0.4737205857     0.0159178399    -0.0699120312
Bq        -0.5461003509     0.0404852653     0.4242110417
Bq        -0.5598641700     0.1452779658     0.5181740515
Bq        -0.5309122639     0.1354509956     0.3205248223
Bq        -0.5743401231     0.1501914508     0.6169986661
Bq        -0.5164363109     0.1305375105     0.2217002077
Bq        -0.5888160761     0.1551049359     0.7158232807
Bq        -0.5019603578     0.1256240254     0.1228755932
Bq        -0.6032920291     0.1600184210     0.8146478952
Bq        -0.4874844048     0.1207105403     0.0240509786
Bq        -0.6177679822     0.1649319061     0.9134725098
Bq        -0.4730084517     0.1157970553    -0.0747736360
Bq        -0.5453882170     0.1403644807     0.4193494369
Bq        -0.5591520361     0.2451571811     0.5133124467
Bq        -0.5302001300     0.2353302110     0.3156632176
Bq        -0.5736279891     0.2500706662     0.6121370613
Bq        -0.5157241769     0.2304167259     0.2168386030
Bq        -0.5881039422     0.2549841513     0.7109616759
Bq        -0.5012482239     0.2255032408     0.1180139884
Bq        -0.6025798952     0.2598976364     0.8097862905
Bq        -0.4867722709     0.2205897557     0.0191893738
Bq        -0.6170558482     0.2648111215     0.9086109051
Bq        -0.4722963178     0.2156762706    -0.0796352408
Bq        -0.5446760830     0.2402436960     0.4144878321
Bq        -0.5584399021     0.3450363965     0.5084508420
Bq        -0.5294879960     0.3352094263     0.3108016128
Bq        -0.5729158552     0.3499498816     0.6072754565
Bq        -0.5150120430     0.3302959413     0.2119769982
Bq        -0.5873918082     0.3548633667     0.7061000711
Bq        -0.5005360900     0.3253824562     0.1131523836
Bq        -0.6018677613     0.3597768518     0.8049246857
Bq        -0.4860601369     0.3204689711     0.0143277690
Bq        -0.6163437143     0.3646903368     0.9037493003
Bq        -0.4715841839     0.3155554860    -0.0844968455
Bq        -0.5439639491     0.3401229114     0.4096262274
Bq        -0.5577277682     0.4449156119     0.5035892372
Bq        -0.5287758621     0.4350886417     0.3059400080
Bq        -0.5722037212     0.4498290970     0.6024138518
Bq        -0.5142999091     0.4301751566     0.2071153934
Bq        -0.5866796743     0.4547425820     0.7012384664
Bq        -0.4998239560     0.4252616716     0.1082907789
Bq        -0.6011556273     0.4596560671     0.8000630809
Bq        -0.4853480030     0.4203481865     0.0094661643
Bq        -0.6156315804     0.4645695522     0.8988876955
Bq        -0.4708720499     0.4154347014    -0.0893584503
Bq        -0.5432518151     0.4400021268     0.4047646226
Bq        -0.5570156342     0.5447948273     0.4987276324
Bq        -0.5280637282     0.5349678571     0.3010784033
Bq        -0.5714915873     0.5497083123     0.5975522470
Bq        -0.5135877751     0.5300543720     0.2022537887
Bq        -0.5859675403     0.5546217974     0.6963768616
Bq        -0.4991118221     0.5251408869     0.1034291741
Bq        -0.6004434934     0.5595352825     0.7952014762
Bq        -0.4846358690     0.5202274018     0.0046045595
Bq        -0.6149194464     0.5644487676     0.8940260908
Bq        -0.4701599160     0.5153139168    -0.0942200551
Bq        -0.5425396812     0.5398813422     0.3999030178
Bq        -0.5563035003     0.6446740426     0.4938660277
Bq        -0.5273515942     0.6348470725     0.2962167985
Bq        -0.5707794534     0.6495875277     0.5926906422
Bq        -0.5128756412     0.6299335874     0.1973921839
Bq        -0.5852554064     0.6545010128     0.6915152568
Bq        -0.4983996881     0.6250201023     0.0985675693
Bq        -0.5997313594     0.6594144979     0.7903398714
Bq        -0.4839237351     0.6201066172    -0.0002570453
Bq        -0.6142073125     0.6643279830     0.8891644860
Bq        -0.4694477820     0.6151931321    -0.0990816598
Bq        -0.5418275473     0.6397605576     0.3950414131
Bq        -0.5555913664     0.7445532580     0.4890044229
Bq        -0.5266394603     0.7347262878     0.2913551937
Bq        -0.5700673194     0.7494667431     0.5878290375
Bq        -0.5121635072     0.7298128028     0.1925305791
Bq        -0.5845432725     0.7543802282     0.6866536521
Bq        -0.4976875542     0.7248993177     0.0937059646
Bq        -0.5990192255     0.7592937133     0.7854782667
Bq        -0.4832116011     0.7199858326    -0.0051186500
Bq        -0.6134951785     0.7642071983     0.8843028812
Bq        -0.4687356481     0.7150723475    -0.1039432646
Bq        -0.5411154133     0.7396397729     0.3901798083
Bq        -0.5548792324     0.8444324734     0.4841428181
Bq        -0.5259273263     0.8346055032     0.2864935890
Bq        -0.5693551855     0.8493459585     0.5829674327
Bq        -0.5114513733     0.8296920181     0.1876689744
Bq        -0.5838311385     0.8542594436     0.6817920473
Bq        -0.4969754202     0.8247785331     0.0888443598
Bq        -0.5983070916     0.8591729286     0.7806166619
Bq        -0.4824994672     0.8198650480    -0.0099802548
Bq        -0.6127830446     0.8640864137     0.8794412765
Bq        -0.4680235142     0.8149515629    -0.1088048694
Bq        -0.5404032794     0.8395189883     0.3853182035
Bq        -0.5541670985     0.9443116888     0.4792812134
Bq        -0.5252151924     0.9344847186     0.2816319842
Bq        -0.5686430515     0.9492251739     0.5781058279
Bq        -0.5107392393     0.9295712335     0.1828073696
Bq        -0.5831190046     0.9541386589     0.6769304425
Bq        -0.4962632863     0.9246577484     0.0839827550
Bq        -0.5975949576     0.9590521440     0.7757550571
Bq        -0.4817873333     0.9197442634    -0.0148418596
Bq        -0.6120709107     0.9639656291     0.8745796717
Bq        -0.4673113802     0.9148307783    -0.1136664741
Bq        -0.5396911454     0.9393982037     0.3804565988
Bq        -0.5534549645     1.0441909041     0.4744196086
Bq        -0.5245030585     1.0343639340     0.2767703794

1
2
3
4
5
6
7
8
9
10
11
12
13
14
15
16
17
18
19
20
21
22
23
24
25
26
27
28
29
30
31
32
33
34
35
36
37
38
39
40
41
42
43
44
45
46
47
48
49
50
51
52
53
54
55
56
57
58
59
60
61
62
63
64
65
66
67
68
69
70
71
72
73
74
75
76
77
78
79
80
81
82
83
84
85
86
87
88
89
90
91
92
93
94
95
96
97
98
99
100
101
102
103
104
105
106
107
108
109
110
111
112
113
114
115
116
117
118
119
120
121
122
123
124
125
126
127
128
129
130
131
132
133
134
135
136
137
138
139
140
141
142
143
144
145
146
147
148
149
150
151
152
153
154
155
156
157
158
159
160
161
162
163
164
165
166
167
168
169
170
171
172
173
174
175
176
177
178
179
180
181
182
183
184
185
186
187
188
189
190
191
192
193
194
195
196
197
198
199
200
201
202
203
204
205
206
207
208
209
210
211
212
213
214
215
216
217
218
219
220
221
222
223
224
225
226
227
228
229
230
231
232
233
234
235
236

