%nproc=8
%mem=1000MB
# rb3lyp/6-311+g** NMR geom=connectivity

Title

0 1
C    -4.0500558   -0.5771862    0.8136712
H    -5.0263804   -1.0082727    1.0024760
C    -3.9381552    0.6617804    0.2400876
H    -4.8252424    1.2338890   -0.0111295
C    -2.6768410    1.2433246    0.0057578
C    -1.4974121    0.5051527    0.2848253
C    -1.6508332   -0.7338728    0.9404026
H    -0.7713646   -1.2730967    1.2633753
C    -2.8898548   -1.2624035    1.1994307
H    -2.9683706   -2.2124563    1.7152676
C    -2.5773185    2.5963696   -0.4192930
H    -3.4870728    3.1412239   -0.6474055
C    -1.3741895    3.2147896   -0.4364030
H    -1.2997315    4.2742019   -0.6578144
C    -0.1719488    2.4994090   -0.1734588
C    -0.2043917    1.1018437    0.0192689
C     1.0513491    3.2042560   -0.0676222
H     1.0427344    4.2819499   -0.1896997
C     2.1942091    2.5487446    0.2579577
H     3.1168527    3.0912848    0.4334727
C     2.2216473    1.1336562    0.2934990
C     1.0486931    0.3945528    0.0302412
C     3.4483363    0.4614633    0.5573939
H     4.3095794    1.0606054    0.8334846
C     3.5427346   -0.8855926    0.4749463
H     4.4731467   -1.3939704    0.7038822
C     2.4490052   -1.6474447   -0.0196319
C     1.2150704   -1.0057258   -0.3013573
C     0.2531113   -1.7434440   -1.0216591
H    -0.6541356   -1.2535051   -1.3462847
C     0.4494193   -3.0628597   -1.3413779
H    -0.3083162   -3.5944309   -1.9054060
C     1.6251726   -3.7207967   -0.9552541
H     1.7670048   -4.7687404   -1.1927019
C     2.6109872   -3.0144177   -0.3183050
H     3.5525612   -3.4902813   -0.0646367
Bq         0.0473237764    -2.0003487459    -0.2669675135
Bq         0.2864943591    -1.8406548393    -0.7935558617
Bq         0.0074620126    -2.0269643970    -0.1792027887
Bq         0.3263561229    -1.8140391882    -0.8813205865
Bq        -0.0323997512    -2.0535800481    -0.0914380640
Bq         0.3662178867    -1.7874235371    -0.9690853112
Bq         0.1669090677    -1.9205017926    -0.5302616876
Bq         0.1160408306    -1.8507244610    -0.4182637124
Bq         0.1957643581    -1.7974931588    -0.5937931619
Bq         0.0761790668    -1.8773401121    -0.3304989877
Bq         0.2356261219    -1.7708775077    -0.6815578866
Bq         0.0363173030    -1.9039557632    -0.2427342630
Bq         0.2754878857    -1.7442618566    -0.7693226113
Bq        -0.0035444608    -1.9305714143    -0.1549695383
Bq         0.3153496495    -1.7176462055    -0.8570873360
Bq        -0.0434062246    -1.9571870654    -0.0672048136
Bq         0.3552114133    -1.6910305543    -0.9448520607
Bq         0.1559025943    -1.8241088099    -0.5060284371
Bq         0.1050343572    -1.7543314783    -0.3940304620
Bq         0.1847578848    -1.7011001761    -0.5695599114
Bq         0.0651725934    -1.7809471294    -0.3062657373
Bq         0.2246196485    -1.6744845250    -0.6573246361
Bq         0.0253108296    -1.8075627805    -0.2185010125
Bq         0.2644814123    -1.6478688739    -0.7450893608
Bq        -0.0145509342    -1.8341784316    -0.1307362878
Bq         0.3043431761    -1.6212532227    -0.8328540855
Bq        -0.0544126980    -1.8607940827    -0.0429715631
Bq         0.3442049399    -1.5946375716    -0.9206188102
Bq         0.1448961210    -1.7277158272    -0.4817951867
Bq         0.0940278838    -1.6579384956    -0.3697972115
Bq         0.1737514114    -1.6047071934    -0.5453266609
Bq         0.0541661200    -1.6845541467    -0.2820324868
Bq         0.2136131752    -1.5780915422    -0.6330913857
Bq         0.0143043562    -1.7111697978    -0.1942677621
Bq         0.2534749390    -1.5514758911    -0.7208561104
Bq        -0.0255574076    -1.7377854489    -0.1065030374
Bq         0.2933367027    -1.5248602400    -0.8086208351
Bq        -0.0654191713    -1.7644011000    -0.0187383127
Bq         0.3331984665    -1.4982445889    -0.8963855598
Bq         0.1338896476    -1.6313228445    -0.4575619362
Bq         0.0830214104    -1.5615455129    -0.3455639611
Bq         0.1627449380    -1.5083142106    -0.5210934105
Bq         0.0431596467    -1.5881611640    -0.2577992363
Bq         0.2026067018    -1.4816985595    -0.6088581352
Bq         0.0032978829    -1.6147768151    -0.1700345116
Bq         0.2424684656    -1.4550829084    -0.6966228599
Bq        -0.0365638809    -1.6413924662    -0.0822697869
Bq         0.2823302294    -1.4284672573    -0.7843875846
Bq        -0.0764256447    -1.6680081173     0.0054949378
Bq         0.3221919932    -1.4018516062    -0.8721523093
Bq         0.1228831742    -1.5349298617    -0.4333286858
Bq         0.0720149371    -1.4651525301    -0.3213307106
Bq         0.1517384646    -1.4119212279    -0.4968601600
Bq         0.0321531733    -1.4917681812    -0.2335659859
Bq         0.1916002284    -1.3853055768    -0.5846248847
Bq        -0.0077085905    -1.5183838324    -0.1458012612
Bq         0.2314619922    -1.3586899257    -0.6723896094
Bq        -0.0475703543    -1.5449994835    -0.0580365365
Bq         0.2713237560    -1.3320742746    -0.7601543342
Bq        -0.0874321181    -1.5716151346     0.0297281883
Bq         0.3111855198    -1.3054586235    -0.8479190589
Bq         0.1118767009    -1.4385368790    -0.4090954353
Bq         0.0610084637    -1.3687595474    -0.2970974601
Bq         0.1407319913    -1.3155282452    -0.4726269096
Bq         0.0211466999    -1.3953751985    -0.2093327354
Bq         0.1805937551    -1.2889125941    -0.5603916343
Bq        -0.0187150639    -1.4219908496    -0.1215680107
Bq         0.2204555188    -1.2622969430    -0.6481563590
Bq        -0.0585768277    -1.4486065008    -0.0338032860
Bq         0.2603172826    -1.2356812919    -0.7359210837
Bq        -0.0984385915    -1.4752221519     0.0539614387
Bq         0.3001790464    -1.2090656408    -0.8236858084
Bq         0.1008702275    -1.3421438963    -0.3848621849
Bq         0.0500019903    -1.2723665647    -0.2728642097
Bq         0.1297255179    -1.2191352625    -0.4483936591
Bq         0.0101402265    -1.2989822158    -0.1850994850
Bq         0.1695872817    -1.1925196114    -0.5361583838
Bq        -0.0297215373    -1.3255978669    -0.0973347603
Bq         0.2094490455    -1.1659039603    -0.6239231085
Bq        -0.0695833010    -1.3522135180    -0.0095700355
Bq         0.2493108093    -1.1392883092    -0.7116878332
Bq        -0.1094450648    -1.3788291691     0.0781946892
Bq         0.2891725730    -1.1126726581    -0.7994525580
Bq         0.0898637541    -1.2457509136    -0.3606289344
Bq         0.0389955170    -1.1759735820    -0.2486309592
Bq         0.1187190445    -1.1227422798    -0.4241604086
Bq        -0.0008662468    -1.2025892331    -0.1608662345
Bq         0.1585808083    -1.0961266287    -0.5119251334
Bq        -0.0407280106    -1.2292048842    -0.0731015098
Bq         0.1984425721    -1.0695109776    -0.5996898581
Bq        -0.0805897744    -1.2558205353     0.0146632149
Bq         0.2383043359    -1.0428953265    -0.6874545828
Bq        -0.1204515382    -1.2824361864     0.1024279396
Bq         0.2781660997    -1.0162796754    -0.7752193075
Bq         0.0788572807    -1.1493579309    -0.3363956839
Bq         0.0279890436    -1.0795805993    -0.2243977088
Bq         0.1077125712    -1.0263492971    -0.3999271582
Bq        -0.0118727202    -1.1061962504    -0.1366329841
Bq         0.1475743349    -0.9997336460    -0.4876918829
Bq        -0.0517344840    -1.1328119015    -0.0488682593
Bq         0.1874360987    -0.9731179949    -0.5754566076
Bq        -0.0915962478    -1.1594275526     0.0388964654
Bq         0.2272978625    -0.9465023438    -0.6632213323
Bq        -0.1314580116    -1.1860432037     0.1266611901
Bq         0.2671596263    -0.9198866927    -0.7509860570
Bq         0.0678508074    -1.0529649482    -0.3121624335
Bq         0.0169825702    -0.9831876166    -0.2001644583
Bq         0.0967060978    -0.9299563144    -0.3756939077
Bq        -0.0228791936    -1.0098032677    -0.1123997336
Bq         0.1365678616    -0.9033406633    -0.4634586324
Bq        -0.0627409574    -1.0364189188    -0.0246350089
Bq         0.1764296254    -0.8767250122    -0.5512233572
Bq        -0.1026027212    -1.0630345699     0.0631297158
Bq         0.2162913891    -0.8501093610    -0.6389880819
Bq        -0.1424644849    -1.0896502210     0.1508944405
Bq         0.2561531529    -0.8234937099    -0.7267528066
Bq         0.0568443340    -0.9565719655    -0.2879291830
Bq         0.0059760968    -0.8867946339    -0.1759312078
Bq         0.0856996244    -0.8335633317    -0.3514606573
Bq        -0.0338856670    -0.9134102850    -0.0881664831
Bq         0.1255613882    -0.8069476805    -0.4392253820
Bq        -0.0737474307    -0.9400259361    -0.0004017584
Bq         0.1654231520    -0.7803320294    -0.5269901067
Bq        -0.1136091945    -0.9666415872     0.0873629663
Bq         0.2052849158    -0.7537163783    -0.6147548314
Bq        -0.1534709583    -0.9932572383     0.1751276910
Bq         0.2451466796    -0.7271007272    -0.7025195561
Bq         0.0458378606    -0.8601789828    -0.2636959326
Bq        -0.0050303765    -0.7904016512    -0.1516979574
Bq         0.0746931510    -0.7371703489    -0.3272274068
Bq        -0.0448921403    -0.8170173023    -0.0639332327
Bq         0.1145549148    -0.7105546978    -0.4149921315
Bq        -0.0847539041    -0.8436329534     0.0238314920
Bq         0.1544166786    -0.6839390467    -0.5027568562
Bq        -0.1246156679    -0.8702486045     0.1115962167
Bq         0.1942784424    -0.6573233956    -0.5905215810
Bq        -0.1644774317    -0.8968642556     0.1993609415
Bq         0.2341402062    -0.6307077445    -0.6782863057
Bq         0.0348313872    -0.7637860000    -0.2394626821
Bq        -0.0160368499    -0.6940086684    -0.1274647069
Bq         0.0636866777    -0.6407773662    -0.3029941564
Bq        -0.0558986137    -0.7206243196    -0.0396999822
Bq         0.1035484415    -0.6141617151    -0.3907588811
Bq        -0.0957603775    -0.7472399707     0.0480647425
Bq         0.1434102052    -0.5875460640    -0.4785236058
Bq        -0.1356221413    -0.7738556218     0.1358294672
Bq         0.1832719690    -0.5609304129    -0.5662883305
Bq        -0.1754839051    -0.8004712729     0.2235941919
Bq         0.2231337328    -0.5343147618    -0.6540530552
Bq         0.0238249139    -0.6673930173    -0.2152294316
Bq        -0.0270433233    -0.5976156857    -0.1032314565
Bq         0.0526802043    -0.5443843835    -0.2787609059
Bq        -0.0669050871    -0.6242313368    -0.0154667318
Bq         0.0925419681    -0.5177687324    -0.3665256306
Bq        -0.1067668509    -0.6508469879     0.0722979929
Bq         0.1324037319    -0.4911530813    -0.4542903553
Bq        -0.1466286146    -0.6774626391     0.1600627177
Bq         0.1722654957    -0.4645374302    -0.5420550800
Bq        -0.1864903784    -0.7040782902     0.2478274424
Bq         0.2121272594    -0.4379217791    -0.6298198048
Bq         0.0128184405    -0.5710000346    -0.1909961812
Bq        -0.0380497967    -0.5012227030    -0.0789982060
Bq         0.0416737309    -0.4479914008    -0.2545276554
Bq        -0.0779115604    -0.5278383541     0.0087665187
Bq         0.0815354947    -0.4213757497    -0.3422923802
Bq        -0.1177733242    -0.5544540052     0.0965312434
Bq         0.1213972585    -0.3947600986    -0.4300571049
Bq        -0.1576350880    -0.5810696563     0.1842959681
Bq         0.1612590223    -0.3681444475    -0.5178218296
Bq        -0.1974968518    -0.6076853074     0.2720606928
Bq         0.2011207861    -0.3415287964    -0.6055865543
Bq         0.0018119671    -0.4746070519    -0.1667629307
Bq        -0.0490562700    -0.4048297203    -0.0547649556
Bq         0.0306672575    -0.3515984181    -0.2302944050
Bq        -0.0889180338    -0.4314453714     0.0329997692
Bq         0.0705290213    -0.3249827670    -0.3180591297
Bq        -0.1287797976    -0.4580610225     0.1207644939
Bq         0.1103907851    -0.2983671159    -0.4058238544
Bq        -0.1686415614    -0.4846766736     0.2085292186
Bq         0.1502525489    -0.2717514648    -0.4935885791
Bq        -0.2085033252    -0.5112923247     0.2962939433
Bq         0.1901143127    -0.2451358137    -0.5813533038
Bq        -0.0091945062    -0.3782140692    -0.1425296803
Bq        -0.0600627434    -0.3084367376    -0.0305317051
Bq         0.0196607842    -0.2552054354    -0.2060611545
Bq        -0.0999245072    -0.3350523887     0.0572330196
Bq         0.0595225480    -0.2285897843    -0.2938258792
Bq        -0.1397862710    -0.3616680398     0.1449977443
Bq         0.0993843118    -0.2019741332    -0.3815906040
Bq        -0.1796480348    -0.3882836909     0.2327624690
Bq         0.1392460755    -0.1753584821    -0.4693553287
Bq        -0.2195097985    -0.4148993420     0.3205271937
Bq         0.1791078393    -0.1487428310    -0.5571200534
Bq        -0.0202009796    -0.2818210865    -0.1182964298
Bq        -0.0710692168    -0.2120437549    -0.0062984546
Bq         0.0086543108    -0.1588124527    -0.1818279041
Bq        -0.1109309806    -0.2386594060     0.0814662701
Bq         0.0485160746    -0.1321968016    -0.2695926288
Bq        -0.1507927443    -0.2652750571     0.1692309948
Bq         0.0883778384    -0.1055811505    -0.3573573535

1
2
3
4
5
6
7
8
9
10
11
12
13
14
15
16
17
18
19
20
21
22
23
24
25
26
27
28
29
30
31
32
33
34
35
36
37
38
39
40
41
42
43
44
45
46
47
48
49
50
51
52
53
54
55
56
57
58
59
60
61
62
63
64
65
66
67
68
69
70
71
72
73
74
75
76
77
78
79
80
81
82
83
84
85
86
87
88
89
90
91
92
93
94
95
96
97
98
99
100
101
102
103
104
105
106
107
108
109
110
111
112
113
114
115
116
117
118
119
120
121
122
123
124
125
126
127
128
129
130
131
132
133
134
135
136
137
138
139
140
141
142
143
144
145
146
147
148
149
150
151
152
153
154
155
156
157
158
159
160
161
162
163
164
165
166
167
168
169
170
171
172
173
174
175
176
177
178
179
180
181
182
183
184
185
186
187
188
189
190
191
192
193
194
195
196
197
198
199
200
201
202
203
204
205
206
207
208
209
210
211
212
213
214
215
216
217
218
219
220
221
222
223
224
225
226
227
228
229
230
231
232
233
234
235
236

