%nproc=8
%mem=1000MB
# rb3lyp/6-311+g** NMR geom=connectivity

Title

0 1
C    -4.0500558   -0.5771862    0.8136712
H    -5.0263804   -1.0082727    1.0024760
C    -3.9381552    0.6617804    0.2400876
H    -4.8252424    1.2338890   -0.0111295
C    -2.6768410    1.2433246    0.0057578
C    -1.4974121    0.5051527    0.2848253
C    -1.6508332   -0.7338728    0.9404026
H    -0.7713646   -1.2730967    1.2633753
C    -2.8898548   -1.2624035    1.1994307
H    -2.9683706   -2.2124563    1.7152676
C    -2.5773185    2.5963696   -0.4192930
H    -3.4870728    3.1412239   -0.6474055
C    -1.3741895    3.2147896   -0.4364030
H    -1.2997315    4.2742019   -0.6578144
C    -0.1719488    2.4994090   -0.1734588
C    -0.2043917    1.1018437    0.0192689
C     1.0513491    3.2042560   -0.0676222
H     1.0427344    4.2819499   -0.1896997
C     2.1942091    2.5487446    0.2579577
H     3.1168527    3.0912848    0.4334727
C     2.2216473    1.1336562    0.2934990
C     1.0486931    0.3945528    0.0302412
C     3.4483363    0.4614633    0.5573939
H     4.3095794    1.0606054    0.8334846
C     3.5427346   -0.8855926    0.4749463
H     4.4731467   -1.3939704    0.7038822
C     2.4490052   -1.6474447   -0.0196319
C     1.2150704   -1.0057258   -0.3013573
C     0.2531113   -1.7434440   -1.0216591
H    -0.6541356   -1.2535051   -1.3462847
C     0.4494193   -3.0628597   -1.3413779
H    -0.3083162   -3.5944309   -1.9054060
C     1.6251726   -3.7207967   -0.9552541
H     1.7670048   -4.7687404   -1.1927019
C     2.6109872   -3.0144177   -0.3183050
H     3.5525612   -3.4902813   -0.0646367
Bq         1.1546173817    -0.0602164119    -0.1113171024
Bq         1.0262230601    -0.1313547071     0.3666517681
Bq         0.9968531452    -0.0465996721     0.4759860818
Bq         1.0482108739    -0.0181443540     0.2847985336
Bq         0.9711742809    -0.0608273311     0.5715798559
Bq         1.0738897382    -0.0039166950     0.1892047595
Bq         0.9454954166    -0.0750549901     0.6671736300
Bq         1.0995686025     0.0103109641     0.0936109854
Bq         0.9198165523    -0.0892826491     0.7627674041
Bq         1.1252474668     0.0245386231    -0.0019827887
Bq         0.8941376879    -0.1035103082     0.8583611782
Bq         1.1509263312     0.0387662821    -0.0975765628
Bq         1.0225320096    -0.0323720130     0.3803923077
Bq         0.9931620947     0.0523830220     0.4897266213
Bq         1.0445198233     0.0808383400     0.2985390731
Bq         0.9674832304     0.0381553629     0.5853203954
Bq         1.0701986877     0.0950659991     0.2029452991
Bq         0.9418043661     0.0239277039     0.6809141695
Bq         1.0958775520     0.1092936581     0.1073515250
Bq         0.9161255017     0.0097000449     0.7765079436
Bq         1.1215564163     0.1235213171     0.0117577509
Bq         0.8904466374    -0.0045276141     0.8721017177
Bq         1.1472352806     0.1377489761    -0.0838360232
Bq         1.0188409590     0.0666106810     0.3941328472
Bq         0.9894710442     0.1513657160     0.5034671609
Bq         1.0408287728     0.1798210341     0.3122796127
Bq         0.9637921798     0.1371380570     0.5990609350
Bq         1.0665076371     0.1940486931     0.2166858386
Bq         0.9381133155     0.1229103980     0.6946547091
Bq         1.0921865015     0.2082763521     0.1210920645
Bq         0.9124344512     0.1086827389     0.7902484832
Bq         1.1178653658     0.2225040112     0.0254982904
Bq         0.8867555869     0.0944550799     0.8858422573
Bq         1.1435442301     0.2367316702    -0.0700954837
Bq         1.0151499085     0.1655933750     0.4078733868
Bq         0.9857799936     0.2503484100     0.5172077005
Bq         1.0371377223     0.2788037281     0.3260201523
Bq         0.9601011293     0.2361207510     0.6128014745
Bq         1.0628165866     0.2930313871     0.2304263782
Bq         0.9344222650     0.2218930920     0.7083952486
Bq         1.0884954509     0.3072590462     0.1348326041
Bq         0.9087434007     0.2076654330     0.8039890227
Bq         1.1141743152     0.3214867052     0.0392388300
Bq         0.8830645363     0.1934377739     0.8995827968
Bq         1.1398531796     0.3357143642    -0.0563549441
Bq         1.0114588579     0.2645760691     0.4216139264
Bq         0.9820889431     0.3493311041     0.5309482400
Bq         1.0334466717     0.3777864221     0.3397606918
Bq         0.9564100788     0.3351034451     0.6265420141
Bq         1.0591255361     0.3920140812     0.2441669177
Bq         0.9307312144     0.3208757860     0.7221357882
Bq         1.0848044004     0.4062417402     0.1485731436
Bq         0.9050523501     0.3066481270     0.8177295623
Bq         1.1104832647     0.4204693992     0.0529793695
Bq         0.8793734858     0.2924204680     0.9133233364
Bq         1.1361621290     0.4346970583    -0.0426144046
Bq         1.0077678074     0.3635587631     0.4353544659
Bq         0.9783978926     0.4483137981     0.5446887796
Bq         1.0297556212     0.4767691162     0.3535012314
Bq         0.9527190282     0.4340861391     0.6402825537
Bq         1.0554344855     0.4909967752     0.2579074573
Bq         0.9270401639     0.4198584801     0.7358763278
Bq         1.0811133498     0.5052244342     0.1623136832
Bq         0.9013612996     0.4056308210     0.8314701019
Bq         1.1067922142     0.5194520933     0.0667199091
Bq         0.8756824353     0.3914031620     0.9270638760
Bq         1.1324710785     0.5336797523    -0.0288738650
Bq         1.0040767569     0.4625414571     0.4490950055
Bq         0.9747068420     0.5472964922     0.5584293191
Bq         1.0260645707     0.5757518102     0.3672417709
Bq         0.9490279777     0.5330688331     0.6540230932
Bq         1.0517434350     0.5899794692     0.2716479968
Bq         0.9233491134     0.5188411741     0.7496168673
Bq         1.0774222993     0.6042071283     0.1760542228
Bq         0.8976702491     0.5046135151     0.8452106414
Bq         1.1031011636     0.6184347873     0.0804604487
Bq         0.8719913847     0.4903858560     0.9408044155
Bq         1.1287800280     0.6326624463    -0.0151333254
Bq         1.0003857063     0.5615241512     0.4628355450
Bq         0.9710157915     0.6462791862     0.5721698587
Bq         1.0223735201     0.6747345042     0.3809823105
Bq         0.9453369272     0.6320515272     0.6677636328
Bq         1.0480523845     0.6889621633     0.2853885364
Bq         0.9196580628     0.6178238681     0.7633574069
Bq         1.0737312488     0.7031898223     0.1897947623
Bq         0.8939791985     0.6035962091     0.8589511810
Bq         1.0994101131     0.7174174813     0.0942009882
Bq         0.8683003342     0.5893685501     0.9545449551
Bq         1.1250889774     0.7316451404    -0.0013927859
Bq         0.9966946558     0.6605068452     0.4765760846
Bq         0.9673247410     0.7452618802     0.5859103982
Bq         1.0186824696     0.7737171983     0.3947228501
Bq         0.9416458766     0.7310342212     0.6815041723
Bq         1.0443613339     0.7879448573     0.2991290760
Bq         0.9159670123     0.7168065622     0.7770979464
Bq         1.0700401982     0.8021725163     0.2035353019
Bq         0.8902881480     0.7025789031     0.8726917205
Bq         1.0957190626     0.8164001754     0.1079415278
Bq         0.8646092837     0.6883512441     0.9682854946
Bq         1.1213979269     0.8306278344     0.0123477537
Bq         0.9930036053     0.7594895393     0.4903166242
Bq         0.9636336904     0.8442445743     0.5996509378
Bq         1.0149914191     0.8726998923     0.4084633896
Bq         0.9379548261     0.8300169152     0.6952447119
Bq         1.0406702834     0.8869275513     0.3128696155
Bq         0.9122759618     0.8157892562     0.7908384860
Bq         1.0663491477     0.9011552104     0.2172758414
Bq         0.8865970974     0.8015615972     0.8864322601
Bq         1.0920280120     0.9153828694     0.1216820673
Bq         0.8609182331     0.7873339381     0.9820260342
Bq         1.1177068764     0.9296105284     0.0260882932
Bq         0.9893125547     0.8584722333     0.5040571637
Bq         0.9599426399     0.9432272683     0.6133914774
Bq         1.0113003685     0.9716825864     0.4222039292
Bq         0.9342637756     0.9289996093     0.7089852515
Bq         1.0369792328     0.9859102454     0.3266101551
Bq         0.9085849112     0.9147719502     0.8045790256
Bq         1.0626580972     1.0001379044     0.2310163810
Bq         0.8829060469     0.9005442912     0.9001727997
Bq         1.0883369615     1.0143655634     0.1354226069
Bq         0.8572271826     0.8863166322     0.9957665737
Bq         1.1140158258     1.0285932225     0.0398288328
Bq         0.9856215042     0.9574549273     0.5177977033
Bq         0.9562515893     1.0422099623     0.6271320169
Bq         1.0076093180     1.0706652804     0.4359444687
Bq         0.9305727250     1.0279823033     0.7227257910
Bq         1.0332881823     1.0848929394     0.3403506946
Bq         0.9048938607     1.0137546443     0.8183195651
Bq         1.0589670466     1.0991205984     0.2447569205
Bq         0.8792149964     0.9995269852     0.9139133392
Bq         1.0846459110     1.1133482575     0.1491631465
Bq         0.8535361321     0.9852993262     1.0095071133
Bq         1.1103247753     1.1275759165     0.0535693724
Bq         0.9819304537     1.0564376214     0.5315382428
Bq         0.9525605388     1.1411926564     0.6408725565
Bq         1.0039182675     1.1696479744     0.4496850083
Bq         0.9268816745     1.1269649973     0.7364663306
Bq         1.0295971318     1.1838756335     0.3540912342
Bq         0.9012028102     1.1127373383     0.8320601047
Bq         1.0552759961     1.1981032925     0.2584974601
Bq         0.8755239458     1.0985096793     0.9276538788
Bq         1.0809548604     1.2123309515     0.1629036860
Bq         0.8498450815     1.0842820203     1.0232476529
Bq         1.1066337247     1.2265586105     0.0673099119
Bq         0.9782394031     1.1554203154     0.5452787824
Bq         0.9488694883     1.2401753504     0.6546130960
Bq         1.0002272169     1.2686306685     0.4634255479
Bq         0.9231906240     1.2259476914     0.7502068701
Bq         1.0259060812     1.2828583275     0.3678317738
Bq         0.8975117596     1.2117200323     0.8458006442
Bq         1.0515849456     1.2970859865     0.2722379997
Bq         0.8718328953     1.1974923733     0.9413944183
Bq         1.0772638099     1.3113136455     0.1766442256
Bq         0.8461540310     1.1832647143     1.0369881924
Bq         1.1029426742     1.3255413046     0.0810504515
Bq         0.9745483526     1.2544030094     0.5590193219
Bq         0.9451784377     1.3391580444     0.6683536356
Bq         0.9965361664     1.3676133625     0.4771660874
Bq         0.9194995734     1.3249303854     0.7639474097
Bq         1.0222150307     1.3818410215     0.3815723133
Bq         0.8938207091     1.3107027264     0.8595411838
Bq         1.0478938950     1.3960686806     0.2859785392
Bq         0.8681418448     1.2964750674     0.9551349579
Bq         1.0735727594     1.4102963396     0.1903847651
Bq         0.8424629804     1.2822474083     1.0507287320
Bq         1.0992516237     1.4245239986     0.0947909910
Bq         0.9708573021     1.3533857035     0.5727598615
Bq         0.9414873872     1.4381407385     0.6820941752
Bq         0.9928451158     1.4665960565     0.4909066270
Bq         0.9158085229     1.4239130794     0.7776879493
Bq         1.0185239802     1.4808237156     0.3953128529
Bq         0.8901296586     1.4096854204     0.8732817234
Bq         1.0442028445     1.4950513746     0.2997190788
Bq         0.8644507942     1.3954577614     0.9688754974
Bq         1.0698817088     1.5092790336     0.2041253047
Bq         0.8387719299     1.3812301024     1.0644692715
Bq         1.0955605731     1.5235066926     0.1085315306
Bq         0.9671662515     1.4523683975     0.5865004011
Bq         0.9377963367     1.5371234325     0.6958347147
Bq         0.9891540653     1.5655787506     0.5046471665
Bq         0.9121174723     1.5228957735     0.7914284888
Bq         1.0148329296     1.5798064096     0.4090533924
Bq         0.8864386080     1.5086681145     0.8870222629
Bq         1.0405117940     1.5940340686     0.3134596183
Bq         0.8607597437     1.4944404554     0.9826160370
Bq         1.0661906583     1.6082617277     0.2178658442
Bq         0.8350808794     1.4802127964     1.0782098111
Bq         1.0918695226     1.6224893867     0.1222720702
Bq         0.9634752010     1.5513510915     0.6002409406
Bq         0.9341052861     1.6361061265     0.7095752543
Bq         0.9854630148     1.6645614446     0.5183877061
Bq         0.9084264218     1.6218784675     0.8051690284
Bq         1.0111418791     1.6787891036     0.4227939320
Bq         0.8827475575     1.6076508085     0.9007628025
Bq         1.0368207434     1.6930167627     0.3272001579
Bq         0.8570686932     1.5934231495     0.9963565766
Bq         1.0624996077     1.7072444217     0.2316063838
Bq         0.8313898288     1.5791954904     1.0919503507
Bq         1.0881784721     1.7214720807     0.1360126097
Bq         0.9597841505     1.6503337856     0.6139814802

1
2
3
4
5
6
7
8
9
10
11
12
13
14
15
16
17
18
19
20
21
22
23
24
25
26
27
28
29
30
31
32
33
34
35
36
37
38
39
40
41
42
43
44
45
46
47
48
49
50
51
52
53
54
55
56
57
58
59
60
61
62
63
64
65
66
67
68
69
70
71
72
73
74
75
76
77
78
79
80
81
82
83
84
85
86
87
88
89
90
91
92
93
94
95
96
97
98
99
100
101
102
103
104
105
106
107
108
109
110
111
112
113
114
115
116
117
118
119
120
121
122
123
124
125
126
127
128
129
130
131
132
133
134
135
136
137
138
139
140
141
142
143
144
145
146
147
148
149
150
151
152
153
154
155
156
157
158
159
160
161
162
163
164
165
166
167
168
169
170
171
172
173
174
175
176
177
178
179
180
181
182
183
184
185
186
187
188
189
190
191
192
193
194
195
196
197
198
199
200
201
202
203
204
205
206
207
208
209
210
211
212
213
214
215
216
217
218
219
220
221
222
223
224
225
226
227
228
229
230
231
232
233
234
235
236

