%nproc=8
%mem=1000MB
# rb3lyp/6-311+g** NMR geom=connectivity

Title

0 1
C    -4.0500558   -0.5771862    0.8136712
H    -5.0263804   -1.0082727    1.0024760
C    -3.9381552    0.6617804    0.2400876
H    -4.8252424    1.2338890   -0.0111295
C    -2.6768410    1.2433246    0.0057578
C    -1.4974121    0.5051527    0.2848253
C    -1.6508332   -0.7338728    0.9404026
H    -0.7713646   -1.2730967    1.2633753
C    -2.8898548   -1.2624035    1.1994307
H    -2.9683706   -2.2124563    1.7152676
C    -2.5773185    2.5963696   -0.4192930
H    -3.4870728    3.1412239   -0.6474055
C    -1.3741895    3.2147896   -0.4364030
H    -1.2997315    4.2742019   -0.6578144
C    -0.1719488    2.4994090   -0.1734588
C    -0.2043917    1.1018437    0.0192689
C     1.0513491    3.2042560   -0.0676222
H     1.0427344    4.2819499   -0.1896997
C     2.1942091    2.5487446    0.2579577
H     3.1168527    3.0912848    0.4334727
C     2.2216473    1.1336562    0.2934990
C     1.0486931    0.3945528    0.0302412
C     3.4483363    0.4614633    0.5573939
H     4.3095794    1.0606054    0.8334846
C     3.5427346   -0.8855926    0.4749463
H     4.4731467   -1.3939704    0.7038822
C     2.4490052   -1.6474447   -0.0196319
C     1.2150704   -1.0057258   -0.3013573
C     0.2531113   -1.7434440   -1.0216591
H    -0.6541356   -1.2535051   -1.3462847
C     0.4494193   -3.0628597   -1.3413779
H    -0.3083162   -3.5944309   -1.9054060
C     1.6251726   -3.7207967   -0.9552541
H     1.7670048   -4.7687404   -1.1927019
C     2.6109872   -3.0144177   -0.3183050
H     3.5525612   -3.4902813   -0.0646367
Bq         3.5147422792     1.8767544917     1.1247873376
Bq         3.3863479576     1.8056161966     1.6027562081
Bq         3.5404211436     1.8909821507     1.0291935635
Bq         3.3606690933     1.7913885375     1.6983499822
Bq         3.5661000079     1.9052098098     0.9335997894
Bq         3.3349902290     1.7771608785     1.7939437563
Bq         3.5917788722     1.9194374688     0.8380060153
Bq         3.4633845506     1.8482991736     1.3159748858
Bq         3.4340146357     1.9330542087     1.4253091995
Bq         3.4853723644     1.9615095267     1.2341216513
Bq         3.4083357714     1.9188265496     1.5209029736
Bq         3.5110512287     1.9757371857     1.1385278772
Bq         3.3826569071     1.9045988906     1.6164967477
Bq         3.5367300930     1.9899648448     1.0429341031
Bq         3.3569780428     1.8903712316     1.7120905218
Bq         3.5624089573     2.0041925038     0.9473403290
Bq         3.3312991784     1.8761435725     1.8076842958
Bq         3.5880878217     2.0184201628     0.8517465549
Bq         3.4596935001     1.9472818677     1.3297154254
Bq         3.4303235852     2.0320369027     1.4390497390
Bq         3.4816813138     2.0604922207     1.2478621908
Bq         3.4046447209     2.0178092437     1.5346435131
Bq         3.5073601782     2.0747198798     1.1522684167
Bq         3.3789658566     2.0035815846     1.6302372872
Bq         3.5330390425     2.0889475388     1.0566746426
Bq         3.3532869922     1.9893539256     1.7258310613
Bq         3.5587179068     2.1031751978     0.9610808686
Bq         3.3276081279     1.9751262666     1.8214248354
Bq         3.5843967711     2.1174028569     0.8654870945
Bq         3.4560024495     2.0462645617     1.3434559649
Bq         3.4266325347     2.1310195967     1.4527902786
Bq         3.4779902633     2.1594749148     1.2616027304
Bq         3.4009536703     2.1167919377     1.5483840527
Bq         3.5036691276     2.1737025738     1.1660089563
Bq         3.3752748060     2.1025642787     1.6439778268
Bq         3.5293479920     2.1879302328     1.0704151822
Bq         3.3495959417     2.0883366196     1.7395716009
Bq         3.5550268563     2.2021578919     0.9748214081
Bq         3.3239170774     2.0741089606     1.8351653750
Bq         3.5807057206     2.2163855509     0.8792276340
Bq         3.4523113990     2.1452472558     1.3571965045
Bq         3.7077613115    -2.8181151051     0.7917060824
Bq         3.7591190401    -2.7896597870     0.6005185342
Bq         3.6820824472    -2.8323427641     0.8872998565
Bq         3.7847979044    -2.7754321280     0.5049247601
Bq         3.6564035828    -2.8465704231     0.9828936306
Bq         3.8104767688    -2.7612044690     0.4093309861
Bq         3.6307247185    -2.8607980821     1.0784874047
Bq         3.8361556331    -2.7469768099     0.3137372120
Bq         3.6050458542    -2.8750257412     1.1740811788
Bq         3.8618344974    -2.7327491509     0.2181434379
Bq         3.7334401758    -2.8038874460     0.6961123083
Bq         3.7040702609    -2.7191324110     0.8054466220
Bq         3.7554279896    -2.6906770930     0.6142590738
Bq         3.6783913966    -2.7333600701     0.9010403961
Bq         3.7811068539    -2.6764494339     0.5186652997
Bq         3.6527125323    -2.7475877291     0.9966341702
Bq         3.8067857182    -2.6622217749     0.4230715256
Bq         3.6270336680    -2.7618153881     1.0922279443
Bq         3.8324645826    -2.6479941159     0.3274777515
Bq         3.6013548037    -2.7760430471     1.1878217184
Bq         3.8581434469    -2.6337664569     0.2318839774
Bq         3.7297491253    -2.7049047520     0.7098528479
Bq         3.7003792104    -2.6201497170     0.8191871615
Bq         3.7517369391    -2.5916943989     0.6279996134
Bq         3.6747003461    -2.6343773760     0.9147809356
Bq         3.7774158034    -2.5774667399     0.5324058393
Bq         3.6490214818    -2.6486050350     1.0103747097
Bq         3.8030946677    -2.5632390809     0.4368120652
Bq         3.6233426174    -2.6628326941     1.1059684838
Bq         3.8287735320    -2.5490114219     0.3412182911
Bq         3.5976637531    -2.6770603531     1.2015622579
Bq         3.8544523963    -2.5347837628     0.2456245170
Bq         3.7260580747    -2.6059220580     0.7235933875
Bq         3.6966881599    -2.5211670230     0.8329277011
Bq         3.7480458885    -2.4927117049     0.6417401529
Bq         3.6710092956    -2.5353946820     0.9285214752
Bq         3.7737247528    -2.4784840459     0.5461463788
Bq         3.6453304312    -2.5496223410     1.0241152493
Bq         3.7994036172    -2.4642563868     0.4505526047
Bq         3.6196515669    -2.5638500000     1.1197090234
Bq         3.8250824815    -2.4500287278     0.3549588306
Bq         3.5939727026    -2.5780776591     1.2153027975
Bq         3.8507613458    -2.4358010688     0.2593650565
Bq         3.7223670242    -2.5069393639     0.7373339270
Bq         3.6929971093    -2.4221843289     0.8466682407
Bq         3.7443548380    -2.3937290109     0.6554806925
Bq         3.6673182450    -2.4364119879     0.9422620148
Bq         3.7700337023    -2.3795013518     0.5598869184
Bq         3.6416393807    -2.4506396470     1.0378557889
Bq         3.7957125666    -2.3652736928     0.4642931443
Bq         3.6159605164    -2.4648673060     1.1334495630
Bq         3.8213914310    -2.3510460338     0.3686993702
Bq         3.5902816520    -2.4790949650     1.2290433370
Bq         3.8470702953    -2.3368183748     0.2731055961
Bq         3.7186759737    -2.4079566699     0.7510744666
Bq         3.6893060588    -2.3232016349     0.8604087802
Bq         3.7406637874    -2.2947463168     0.6692212320
Bq         3.6636271945    -2.3374292939     0.9560025543
Bq         3.7663426518    -2.2805186578     0.5736274579
Bq         3.6379483302    -2.3516569529     1.0515963284
Bq         3.7920215161    -2.2662909988     0.4780336838
Bq         3.6122694658    -2.3658846120     1.1471901025
Bq         3.8177003804    -2.2520633397     0.3824399098
Bq         3.5865906015    -2.3801122710     1.2427838766
Bq         3.8433792447    -2.2378356807     0.2868461357
Bq         3.7149849231    -2.3089739759     0.7648150061
Bq         3.6856150083    -2.2242189408     0.8741493198
Bq         3.7369727369    -2.1957636228     0.6829617716
Bq         3.6599361439    -2.2384465999     0.9697430939
Bq         3.7626516012    -2.1815359638     0.5873679975
Bq         3.6342572796    -2.2526742589     1.0653368680
Bq         3.7883304656    -2.1673083047     0.4917742234
Bq         3.6085784153    -2.2669019179     1.1609306421
Bq         3.8140093299    -2.1530806457     0.3961804493
Bq         3.5828995510    -2.2811295770     1.2565244162
Bq         3.8396881942    -2.1388529867     0.3005866752
Bq         3.7112938726    -2.2099912818     0.7785555457
Bq         3.6819239577    -2.1252362468     0.8878898593
Bq         3.7332816864    -2.0967809288     0.6967023112
Bq         3.6562450934    -2.1394639058     0.9834836334
Bq         3.7589605507    -2.0825532697     0.6011085371
Bq         3.6305662291    -2.1536915649     1.0790774075
Bq         3.7846394150    -2.0683256107     0.5055147630
Bq         3.6048873648    -2.1679192239     1.1746711816
Bq         3.8103182793    -2.0540979517     0.4099209889
Bq         3.5792085004    -2.1821468829     1.2702649557
Bq         3.8359971437    -2.0398702926     0.3143272148
Bq         3.7076028221    -2.1110085878     0.7922960852
Bq         3.6782329072    -2.0262535528     0.9016303989
Bq         3.7295906358    -1.9977982347     0.7104428507
Bq         3.6525540429    -2.0404812118     0.9972241730
Bq         3.7552695002    -1.9835705757     0.6148490766
Bq         3.6268751786    -2.0547088708     1.0928179471
Bq         3.7809483645    -1.9693429167     0.5192553025
Bq         3.6011963142    -2.0689365299     1.1884117212
Bq         3.8066272288    -1.9551152576     0.4236615284
Bq         3.5755174499    -2.0831641889     1.2840054953
Bq         3.8323060931    -1.9408875986     0.3280677543
Bq         3.7039117715    -2.0120258937     0.8060366248
Bq         3.6745418567    -1.9272708587     0.9153709385
Bq         3.7258995853    -1.8988155407     0.7241833903
Bq         3.6488629923    -1.9414985178     1.0109647126
Bq         3.7515784496    -1.8845878817     0.6285896162
Bq         3.6231841280    -1.9557261768     1.1065584867
Bq         3.7772573140    -1.8703602226     0.5329958421
Bq         3.5975052637    -1.9699538358     1.2021522607
Bq         3.8029361783    -1.8561325636     0.4374020680
Bq         3.5718263994    -1.9841814949     1.2977460348
Bq         3.8286150426    -1.8419049046     0.3418082939
Bq         3.7002207210    -1.9130431997     0.8197771644
Bq         3.6708508061    -1.8282881647     0.9291114780
Bq         3.7222085348    -1.7998328466     0.7379239298
Bq         3.6451719418    -1.8425158237     1.0247052521
Bq         3.7478873991    -1.7856051876     0.6423301557
Bq         3.6194930775    -1.8567434828     1.1202990262
Bq         3.7735662634    -1.7713775286     0.5467363816
Bq         3.5938142132    -1.8709711418     1.2158928003
Bq         3.7992451277    -1.7571498696     0.4511426075
Bq         3.5681353488    -1.8851988008     1.3114865744
Bq         3.8249239921    -1.7429222105     0.3555488335
Bq         3.6965296704    -1.8140605057     0.8335177039
Bq         3.6671597556    -1.7293054707     0.9428520176
Bq         3.7185174842    -1.7008501526     0.7516644694
Bq         3.6414808913    -1.7435331297     1.0384457917
Bq         3.7441963486    -1.6866224936     0.6560706953
Bq         3.6158020269    -1.7577607887     1.1340395658
Bq         3.7698752129    -1.6723948346     0.5604769212
Bq         3.5901231626    -1.7719884478     1.2296333399
Bq         3.7955540772    -1.6581671755     0.4648831471
Bq         3.5644442983    -1.7862161068     1.3252271140
Bq         3.8212329415    -1.6439395165     0.3692893730
Bq         3.6928386199    -1.7150778116     0.8472582435
Bq         3.6634687051    -1.6303227766     0.9565925571
Bq         3.7148264337    -1.6018674586     0.7654050089
Bq         3.6377898407    -1.6445504357     1.0521863312
Bq         3.7405052980    -1.5876397995     0.6698112349
Bq         3.6121109764    -1.6587780947     1.1477801053
Bq         3.7661841623    -1.5734121405     0.5742174608
Bq         3.5864321121    -1.6730057537     1.2433738794
Bq         3.7918630267    -1.5591844815     0.4786236867
Bq         3.5607532478    -1.6872334127     1.3389676535
Bq         3.8175418910    -1.5449568225     0.3830299126
Bq         3.6891475694    -1.6160951176     0.8609987830
Bq         3.6597776545    -1.5313400826     0.9703330967
Bq         3.7111353832    -1.5028847645     0.7791455485
Bq         3.6340987902    -1.5455677416     1.0659268708
Bq         3.7368142475    -1.4886571055     0.6835517744
Bq         3.6084199259    -1.5597954007     1.1615206449
Bq         3.7624931118    -1.4744294465     0.5879580003
Bq         3.5827410616    -1.5740230597     1.2571144190
Bq         3.7881719761    -1.4602017875     0.4923642262
Bq         3.5570621972    -1.5882507187     1.3527081931
Bq         3.8138508405    -1.4459741284     0.3967704521
Bq         3.6854565188    -1.5171124236     0.8747393226
Bq         3.6560866040    -1.4323573886     0.9840736363
Bq         3.7074443326    -1.4039020705     0.7928860881
Bq         3.6304077397    -1.4465850476     1.0796674104
Bq         3.7331231970    -1.3896744115     0.6972923140
Bq         3.6047288753    -1.4608127066     1.1752611844

1
2
3
4
5
6
7
8
9
10
11
12
13
14
15
16
17
18
19
20
21
22
23
24
25
26
27
28
29
30
31
32
33
34
35
36
37
38
39
40
41
42
43
44
45
46
47
48
49
50
51
52
53
54
55
56
57
58
59
60
61
62
63
64
65
66
67
68
69
70
71
72
73
74
75
76
77
78
79
80
81
82
83
84
85
86
87
88
89
90
91
92
93
94
95
96
97
98
99
100
101
102
103
104
105
106
107
108
109
110
111
112
113
114
115
116
117
118
119
120
121
122
123
124
125
126
127
128
129
130
131
132
133
134
135
136
137
138
139
140
141
142
143
144
145
146
147
148
149
150
151
152
153
154
155
156
157
158
159
160
161
162
163
164
165
166
167
168
169
170
171
172
173
174
175
176
177
178
179
180
181
182
183
184
185
186
187
188
189
190
191
192
193
194
195
196
197
198
199
200
201
202
203
204
205
206
207
208
209
210
211
212
213
214
215
216
217
218
219
220
221
222
223
224
225
226
227
228
229
230
231
232
233
234
235
236

