%nproc=8
%mem=1000MB
# rb3lyp/6-311+g** NMR geom=connectivity

Title

0 1
C    -4.0500558   -0.5771862    0.8136712
H    -5.0263804   -1.0082727    1.0024760
C    -3.9381552    0.6617804    0.2400876
H    -4.8252424    1.2338890   -0.0111295
C    -2.6768410    1.2433246    0.0057578
C    -1.4974121    0.5051527    0.2848253
C    -1.6508332   -0.7338728    0.9404026
H    -0.7713646   -1.2730967    1.2633753
C    -2.8898548   -1.2624035    1.1994307
H    -2.9683706   -2.2124563    1.7152676
C    -2.5773185    2.5963696   -0.4192930
H    -3.4870728    3.1412239   -0.6474055
C    -1.3741895    3.2147896   -0.4364030
H    -1.2997315    4.2742019   -0.6578144
C    -0.1719488    2.4994090   -0.1734588
C    -0.2043917    1.1018437    0.0192689
C     1.0513491    3.2042560   -0.0676222
H     1.0427344    4.2819499   -0.1896997
C     2.1942091    2.5487446    0.2579577
H     3.1168527    3.0912848    0.4334727
C     2.2216473    1.1336562    0.2934990
C     1.0486931    0.3945528    0.0302412
C     3.4483363    0.4614633    0.5573939
H     4.3095794    1.0606054    0.8334846
C     3.5427346   -0.8855926    0.4749463
H     4.4731467   -1.3939704    0.7038822
C     2.4490052   -1.6474447   -0.0196319
C     1.2150704   -1.0057258   -0.3013573
C     0.2531113   -1.7434440   -1.0216591
H    -0.6541356   -1.2535051   -1.3462847
C     0.4494193   -3.0628597   -1.3413779
H    -0.3083162   -3.5944309   -1.9054060
C     1.6251726   -3.7207967   -0.9552541
H     1.7670048   -4.7687404   -1.1927019
C     2.6109872   -3.0144177   -0.3183050
H     3.5525612   -3.4902813   -0.0646367
Bq        -1.8836450829     2.3887570088     0.5281283883
Bq        -1.8801051272     1.9539298388    -0.3723785806
Bq        -1.8818751051     2.1713434238     0.0778749038
Bq        -1.8820581684     2.3048775334     0.1244432197
Bq        -1.8813501772     2.2179120994    -0.0556581741
Bq        -1.8824121639     2.3483602505     0.2144939166
Bq        -1.8809961816     2.1744293824    -0.1457088710
Bq        -1.8827661595     2.3918429675     0.3045446135
Bq        -1.8806421861     2.1309466654    -0.2357595678
Bq        -1.8831201551     2.4353256845     0.3945953103
Bq        -1.8802881905     2.0874639484    -0.3258102647
Bq        -1.8834741507     2.4788084015     0.4846460072
Bq        -1.8799341949     2.0439812314    -0.4158609616
Bq        -1.8817041728     2.2613948164     0.0343925228
Bq        -1.8818872361     2.3949289261     0.0809608387
Bq        -1.8811792449     2.3079634921    -0.0991405551
Bq        -1.8822412317     2.4384116431     0.1710115355
Bq        -1.8808252494     2.2644807751    -0.1891912520
Bq        -1.8825952272     2.4818943601     0.2610622324
Bq        -1.8804712538     2.2209980581    -0.2792419489
Bq        -1.8829492228     2.5253770771     0.3511129293
Bq        -1.8801172582     2.1775153411    -0.3692926458
Bq        -1.8833032184     2.5688597941     0.4411636262
Bq        -1.8797632626     2.1340326241    -0.4593433426
Bq        -1.8815332405     2.3514462091    -0.0090898582
Bq        -1.8817163038     2.4849803188     0.0374784576
Bq        -1.8810083127     2.3980148848    -0.1426229361
Bq        -1.8820702994     2.5284630358     0.1275291545
Bq        -1.8806543171     2.3545321678    -0.2326736330
Bq        -1.8824242950     2.5719457528     0.2175798514
Bq        -1.8803003215     2.3110494508    -0.3227243299
Bq        -1.8827782905     2.6154284698     0.3076305483
Bq        -1.8799463259     2.2675667338    -0.4127750268
Bq        -1.8831322861     2.6589111868     0.3976812452
Bq        -1.8795923304     2.2240840168    -0.5028257237
Bq        -1.8813623082     2.4414976018    -0.0525722393
Bq        -1.7902636902    -2.0175893147     2.2119906132
Bq        -1.7895556991    -2.1045547487     2.0318892194
Bq        -1.7906176858    -1.9741065977     2.3020413101
Bq        -1.7892017035    -2.1480374658     1.9418385225
Bq        -1.7909716814    -1.9306238807     2.3920920070
Bq        -1.7888477079    -2.1915201828     1.8517878257
Bq        -1.7913256769    -1.8871411637     2.4821427038
Bq        -1.7884937123    -2.2350028998     1.7617371288
Bq        -1.7916796725    -1.8436584467     2.5721934007
Bq        -1.7881397168    -2.2784856168     1.6716864319
Bq        -1.7899096946    -2.0610720317     2.1219399163
Bq        -1.7900927579    -1.9275379221     2.1685082322
Bq        -1.7893847668    -2.0145033561     1.9884068384
Bq        -1.7904467535    -1.8840552051     2.2585589290
Bq        -1.7890307712    -2.0579860731     1.8983561415
Bq        -1.7908007491    -1.8405724881     2.3486096259
Bq        -1.7886767756    -2.1014687901     1.8083054446
Bq        -1.7911547447    -1.7970897711     2.4386603228
Bq        -1.7883227801    -2.1449515071     1.7182547478
Bq        -1.7915087402    -1.7536070540     2.5287110197
Bq        -1.7879687845    -2.1884342241     1.6282040509
Bq        -1.7897387624    -1.9710206391     2.0784575353
Bq        -1.7899218257    -1.8374865294     2.1250258511
Bq        -1.7892138345    -1.9244519634     1.9449244574
Bq        -1.7902758212    -1.7940038124     2.2150765480
Bq        -1.7888598389    -1.9679346804     1.8548737605
Bq        -1.7906298168    -1.7505210954     2.3051272449
Bq        -1.7885058434    -2.0114173974     1.7648230636
Bq        -1.7909838124    -1.7070383784     2.3951779418
Bq        -1.7881518478    -2.0549001144     1.6747723667
Bq        -1.7913378080    -1.6635556614     2.4852286387
Bq        -1.7877978522    -2.0983828314     1.5847216698
Bq        -1.7895678301    -1.8809692464     2.0349751542
Bq        -1.7897508934    -1.7474351367     2.0815434701
Bq        -1.7890429022    -1.8344005707     1.9014420763
Bq        -1.7901048890    -1.7039524197     2.1715941670
Bq        -1.7886889067    -1.8778832877     1.8113913795
Bq        -1.7904588845    -1.6604697027     2.2616448639
Bq        -1.7883349111    -1.9213660047     1.7213406826
Bq        -1.7908128801    -1.6169869857     2.3516955607
Bq        -1.7879809155    -1.9648487217     1.6312899857
Bq        -1.7911668757    -1.5735042687     2.4417462576
Bq        -1.7876269199    -2.0083314388     1.5412392888
Bq        -1.7893968978    -1.7909178537     1.9914927732
Bq        -1.7895799611    -1.6573837441     2.0380610891
Bq        -1.7888719700    -1.7443491781     1.8579596953
Bq        -1.7899339567    -1.6139010270     2.1281117859
Bq        -1.7885179744    -1.7878318951     1.7679089984
Bq        -1.7902879523    -1.5704183100     2.2181624828
Bq        -1.7881639788    -1.8313146121     1.6778583015
Bq        -1.7906419478    -1.5269355930     2.3082131797
Bq        -1.7878099832    -1.8747973291     1.5878076047
Bq        -1.7909959434    -1.4834528760     2.3982638766
Bq        -1.7874559877    -1.9182800461     1.4977569078
Bq        -1.7892259655    -1.7008664611     1.9480103922
Bq        -1.7894090288    -1.5673323514     1.9945787080
Bq        -1.7887010377    -1.6542977854     1.8144773143
Bq        -1.7897630244    -1.5238496344     2.0846294049
Bq        -1.7883470421    -1.6977805024     1.7244266174
Bq        -1.7901170200    -1.4803669174     2.1746801018
Bq        -1.7879930465    -1.7412632194     1.6343759205
Bq        -1.7904710156    -1.4368842004     2.2647307987
Bq        -1.7876390510    -1.7847459364     1.5443252236
Bq        -1.7908250111    -1.3934014834     2.3547814956
Bq        -1.7872850554    -1.8282286534     1.4542745267
Bq        -1.7890550333    -1.6108150684     1.9045280112
Bq        -1.7892380966    -1.4772809587     1.9510963270
Bq        -1.7885301054    -1.5642463927     1.7709949332
Bq        -1.7895920921    -1.4337982417     2.0411470239
Bq        -1.7881761098    -1.6077291097     1.6809442364
Bq        -1.7899460877    -1.3903155247     2.1311977208
Bq        -1.7878221143    -1.6512118267     1.5908935395
Bq        -1.7903000833    -1.3468328077     2.2212484176
Bq        -1.7874681187    -1.6946945437     1.5008428426
Bq        -1.7906540789    -1.3033500907     2.3112991145
Bq        -1.7871141231    -1.7381772607     1.4107921457
Bq        -1.7888841010    -1.5207636757     1.8610456301
Bq        -1.7890671643    -1.3872295660     1.9076139460
Bq        -1.7883591731    -1.4741950001     1.7275125522
Bq        -1.7894211599    -1.3437468490     1.9976646429
Bq        -1.7880051776    -1.5176777171     1.6374618553
Bq        -1.7897751554    -1.3002641320     2.0877153397
Bq        -1.7876511820    -1.5611604341     1.5474111584
Bq        -1.7901291510    -1.2567814150     2.1777660366
Bq        -1.7872971864    -1.6046431511     1.4573604616
Bq        -1.7904831466    -1.2132986980     2.2678167335
Bq        -1.7869431908    -1.6481258681     1.3673097647
Bq        -1.7887131687    -1.4307122830     1.8175632491
Bq        -1.7888962320    -1.2971781734     1.8641315649
Bq        -1.7881882409    -1.3841436074     1.6840301712
Bq        -1.7892502276    -1.2536954564     1.9541822618
Bq        -1.7878342453    -1.4276263244     1.5939794743
Bq        -1.7896042232    -1.2102127394     2.0442329587
Bq        -1.7874802497    -1.4711090414     1.5039287774
Bq        -1.7899582187    -1.1667300224     2.1342836556
Bq        -1.7871262541    -1.5145917584     1.4138780805
Bq        -1.7903122143    -1.1232473054     2.2243343525
Bq        -1.7867722586    -1.5580744754     1.3238273836
Bq        -1.7885422364    -1.3406608904     1.7740808681
Bq        -1.7887252997    -1.2071267807     1.8206491839
Bq        -1.7880173086    -1.2940922147     1.6405477901
Bq        -1.7890792953    -1.1636440637     1.9106998808
Bq        -1.7876633130    -1.3375749317     1.5504970933
Bq        -1.7894332909    -1.1201613467     2.0007505777
Bq        -1.7873093174    -1.3810576487     1.4604463964
Bq        -1.7897872865    -1.0766786297     2.0908012746
Bq        -1.7869553219    -1.4245403657     1.3703956995
Bq        -1.7901412820    -1.0331959127     2.1808519714
Bq        -1.7866013263    -1.4680230827     1.2803450026
Bq        -1.7883713042    -1.2506094977     1.7305984870
Bq        -1.7885543675    -1.1170753880     1.7771668029
Bq        -1.7878463763    -1.2040408220     1.5970654091
Bq        -1.7889083630    -1.0735926710     1.8672174998
Bq        -1.7874923807    -1.2475235390     1.5070147122
Bq        -1.7892623586    -1.0301099540     1.9572681966
Bq        -1.7871383852    -1.2910062560     1.4169640153
Bq        -1.7896163542    -0.9866272370     2.0473188935
Bq        -1.7867843896    -1.3344889731     1.3269133185
Bq        -1.7899703498    -0.9431445200     2.1373695904
Bq        -1.7864303940    -1.3779716901     1.2368626216
Bq        -1.7882003719    -1.1605581050     1.6871161060
Bq        -1.7883834352    -1.0270239954     1.7336844218
Bq        -1.7876754440    -1.1139894294     1.5535830281
Bq        -1.7887374308    -0.9835412784     1.8237351187
Bq        -1.7873214485    -1.1574721464     1.4635323312
Bq        -1.7890914263    -0.9400585614     1.9137858156
Bq        -1.7869674529    -1.2009548634     1.3734816343
Bq        -1.7894454219    -0.8965758443     2.0038365125
Bq        -1.7866134573    -1.2444375804     1.2834309374
Bq        -1.7897994175    -0.8530931273     2.0938872094
Bq        -1.7862594617    -1.2879202974     1.1933802405
Bq        -1.7880294396    -1.0705067124     1.6436337250
Bq        -1.7882125029    -0.9369726027     1.6902020408
Bq        -1.7875045118    -1.0239380367     1.5101006470
Bq        -1.7885664985    -0.8934898857     1.7802527377
Bq        -1.7871505162    -1.0674207537     1.4200499502
Bq        -1.7889204941    -0.8500071687     1.8703034346
Bq        -1.7867965206    -1.1109034707     1.3299992533
Bq        -1.7892744896    -0.8065244517     1.9603541315
Bq        -1.7864425250    -1.1543861877     1.2399485564
Bq        -1.7896284852    -0.7630417347     2.0504048283
Bq        -1.7860885295    -1.1978689047     1.1498978595
Bq        -1.7878585073    -0.9804553197     1.6001513439
Bq        -1.7880415706    -0.8469212100     1.6467196598
Bq        -1.7873335795    -0.9338866440     1.4666182660
Bq        -1.7883955662    -0.8034384930     1.7367703567
Bq        -1.7869795839    -0.9773693610     1.3765675691
Bq        -1.7887495618    -0.7599557760     1.8268210535
Bq        -1.7866255883    -1.0208520780     1.2865168722
Bq        -1.7891035574    -0.7164730590     1.9168717504
Bq        -1.7862715928    -1.0643347950     1.1964661754
Bq        -1.7894575529    -0.6729903420     2.0069224473
Bq        -1.7859175972    -1.1078175120     1.1064154785
Bq        -1.7876875751    -0.8904039270     1.5566689629
Bq        -1.7878706384    -0.7568698173     1.6032372787
Bq        -1.7871626472    -0.8438352514     1.4231358850
Bq        -1.7882246339    -0.7133871003     1.6932879756
Bq        -1.7868086516    -0.8873179684     1.3330851881
Bq        -1.7885786295    -0.6699043833     1.7833386725
Bq        -1.7864546561    -0.9308006854     1.2430344912
Bq        -1.7889326251    -0.6264216663     1.8733893694
Bq        -1.7861006605    -0.9742834024     1.1529837943
Bq        -1.7892866207    -0.5829389493     1.9634400663
Bq        -1.7857466649    -1.0177661194     1.0629330974

1
2
3
4
5
6
7
8
9
10
11
12
13
14
15
16
17
18
19
20
21
22
23
24
25
26
27
28
29
30
31
32
33
34
35
36
37
38
39
40
41
42
43
44
45
46
47
48
49
50
51
52
53
54
55
56
57
58
59
60
61
62
63
64
65
66
67
68
69
70
71
72
73
74
75
76
77
78
79
80
81
82
83
84
85
86
87
88
89
90
91
92
93
94
95
96
97
98
99
100
101
102
103
104
105
106
107
108
109
110
111
112
113
114
115
116
117
118
119
120
121
122
123
124
125
126
127
128
129
130
131
132
133
134
135
136
137
138
139
140
141
142
143
144
145
146
147
148
149
150
151
152
153
154
155
156
157
158
159
160
161
162
163
164
165
166
167
168
169
170
171
172
173
174
175
176
177
178
179
180
181
182
183
184
185
186
187
188
189
190
191
192
193
194
195
196
197
198
199
200
201
202
203
204
205
206
207
208
209
210
211
212
213
214
215
216
217
218
219
220
221
222
223
224
225
226
227
228
229
230
231
232
233
234
235
236

