%nproc=8
%mem=1000MB
# rb3lyp/6-311+g** NMR geom=connectivity

Title

0 1
C    -4.0500558   -0.5771862    0.8136712
H    -5.0263804   -1.0082727    1.0024760
C    -3.9381552    0.6617804    0.2400876
H    -4.8252424    1.2338890   -0.0111295
C    -2.6768410    1.2433246    0.0057578
C    -1.4974121    0.5051527    0.2848253
C    -1.6508332   -0.7338728    0.9404026
H    -0.7713646   -1.2730967    1.2633753
C    -2.8898548   -1.2624035    1.1994307
H    -2.9683706   -2.2124563    1.7152676
C    -2.5773185    2.5963696   -0.4192930
H    -3.4870728    3.1412239   -0.6474055
C    -1.3741895    3.2147896   -0.4364030
H    -1.2997315    4.2742019   -0.6578144
C    -0.1719488    2.4994090   -0.1734588
C    -0.2043917    1.1018437    0.0192689
C     1.0513491    3.2042560   -0.0676222
H     1.0427344    4.2819499   -0.1896997
C     2.1942091    2.5487446    0.2579577
H     3.1168527    3.0912848    0.4334727
C     2.2216473    1.1336562    0.2934990
C     1.0486931    0.3945528    0.0302412
C     3.4483363    0.4614633    0.5573939
H     4.3095794    1.0606054    0.8334846
C     3.5427346   -0.8855926    0.4749463
H     4.4731467   -1.3939704    0.7038822
C     2.4490052   -1.6474447   -0.0196319
C     1.2150704   -1.0057258   -0.3013573
C     0.2531113   -1.7434440   -1.0216591
H    -0.6541356   -1.2535051   -1.3462847
C     0.4494193   -3.0628597   -1.3413779
H    -0.3083162   -3.5944309   -1.9054060
C     1.6251726   -3.7207967   -0.9552541
H     1.7670048   -4.7687404   -1.1927019
C     2.6109872   -3.0144177   -0.3183050
H     3.5525612   -3.4902813   -0.0646367
Bq         1.0037809213    -0.5489630568     0.8829252421
Bq         1.0616847335    -0.5686169971     0.4876267837
Bq         0.9893049683    -0.5440495717     0.9817498567
Bq         1.0761606865    -0.5735304822     0.3888021691
Bq         0.9748290152    -0.5391360866     1.0805744712
Bq         1.0906366396    -0.5784439673     0.2899775546
Bq         0.9603530622    -0.5342226016     1.1793990858
Bq         1.1051125926    -0.5833574524     0.1911529400
Bq         1.0327328274    -0.5587900270     0.6852760129
Bq         1.0189690083    -0.4539973265     0.7792390227
Bq         1.0479209144    -0.4638242967     0.5815897935
Bq         1.0044930552    -0.4490838414     0.8780636373
Bq         1.0623968674    -0.4687377818     0.4827651790
Bq         0.9900171022    -0.4441703563     0.9768882519
Bq         1.0768728205    -0.4736512668     0.3839405644
Bq         0.9755411491    -0.4392568713     1.0757128665
Bq         1.0913487735    -0.4785647519     0.2851159498
Bq         0.9610651961    -0.4343433862     1.1745374811
Bq         1.1058247265    -0.4834782370     0.1862913352
Bq         1.0334449613    -0.4589108116     0.6804144081
Bq         1.0196811422    -0.3541181111     0.7743774180
Bq         1.0486330483    -0.3639450813     0.5767281888
Bq         1.0052051892    -0.3492046261     0.8732020325
Bq         1.0631090014    -0.3688585664     0.4779035742
Bq         0.9907292361    -0.3442911410     0.9720266471
Bq         1.0775849544    -0.3737720515     0.3790789596
Bq         0.9762532831    -0.3393776559     1.0708512617
Bq         1.0920609074    -0.3786855365     0.2802543450
Bq         0.9617773300    -0.3344641708     1.1696758763
Bq         1.1065368605    -0.3835990216     0.1814297304
Bq         1.0341570953    -0.3590315962     0.6755528034
Bq         1.0203932762    -0.2542388958     0.7695158132
Bq         1.0493451823    -0.2640658659     0.5718665840
Bq         1.0059173231    -0.2493254107     0.8683404278
Bq         1.0638211353    -0.2689793510     0.4730419694
Bq         0.9914413701    -0.2444119256     0.9671650424
Bq         1.0782970883    -0.2738928361     0.3742173548
Bq         0.9769654170    -0.2394984405     1.0659896569
Bq         1.0927730414    -0.2788063212     0.2753927403
Bq         0.9624894640    -0.2345849554     1.1648142715
Bq         1.1072489944    -0.2837198063     0.1765681257
Bq         1.0348692292    -0.2591523808     0.6706911986
Bq         1.0211054101    -0.1543596804     0.7646542084
Bq         1.0500573162    -0.1641866505     0.5670049792
Bq         1.0066294571    -0.1494461953     0.8634788230
Bq         1.0645332692    -0.1691001356     0.4681803647
Bq         0.9921535040    -0.1445327102     0.9623034376
Bq         1.0790092223    -0.1740136207     0.3693557501
Bq         0.9776775510    -0.1396192251     1.0611280522
Bq         1.0934851753    -0.1789271058     0.2705311355
Bq         0.9632015979    -0.1347057400     1.1599526668
Bq         1.1079611284    -0.1838405909     0.1717065209
Bq         1.0355813631    -0.1592731655     0.6658295938
Bq         1.0218175440    -0.0544804650     0.7597926037
Bq         1.0507694501    -0.0643074352     0.5621433745
Bq         1.0073415910    -0.0495669799     0.8586172182
Bq         1.0652454032    -0.0692209203     0.4633187599
Bq         0.9928656380    -0.0446534948     0.9574418328
Bq         1.0797213562    -0.0741344053     0.3644941453
Bq         0.9783896849    -0.0397400098     1.0562664474
Bq         1.0941973093    -0.0790478904     0.2656695307
Bq         0.9639137319    -0.0348265247     1.1550910620
Bq         1.1086732623    -0.0839613755     0.1668449161
Bq         1.0362934971    -0.0593939501     0.6609679891
Bq         1.0225296780     0.0453987504     0.7549309989
Bq         1.0514815841     0.0355717802     0.5572817697
Bq         1.0080537249     0.0503122355     0.8537556135
Bq         1.0659575371     0.0306582951     0.4584571551
Bq         0.9935777719     0.0552257205     0.9525802281
Bq         1.0804334902     0.0257448100     0.3596325405
Bq         0.9791018189     0.0601392056     1.0514048426
Bq         1.0949094432     0.0208313250     0.2608079260
Bq         0.9646258658     0.0650526907     1.1502294572
Bq         1.1093853963     0.0159178399     0.1619833114
Bq         1.0370056310     0.0404852653     0.6561063843
Bq         1.0232418119     0.1452779658     0.7500693941
Bq         1.0521937180     0.1354509956     0.5524201649
Bq         1.0087658589     0.1501914508     0.8488940087
Bq         1.0666696711     0.1305375105     0.4535955504
Bq         0.9942899058     0.1551049359     0.9477186233
Bq         1.0811456241     0.1256240254     0.3547709358
Bq         0.9798139528     0.1600184210     1.0465432379
Bq         1.0956215772     0.1207105403     0.2559463212
Bq         0.9653379998     0.1649319061     1.1453678525
Bq         1.1100975302     0.1157970553     0.1571217066
Bq         1.0377177650     0.1403644807     0.6512447795
Bq         1.0239539459     0.2451571811     0.7452077894
Bq         1.0529058520     0.2353302110     0.5475585602
Bq         1.0094779928     0.2500706662     0.8440324039
Bq         1.0673818050     0.2304167259     0.4487339456
Bq         0.9950020398     0.2549841513     0.9428570185
Bq         1.0818577580     0.2255032408     0.3499093310
Bq         0.9805260867     0.2598976364     1.0416816331
Bq         1.0963337111     0.2205897557     0.2510847164
Bq         0.9660501337     0.2648111215     1.1405062477
Bq         1.1108096641     0.2156762706     0.1522601018
Bq         1.0384298989     0.2402436960     0.6463831748
Bq         1.0246660798     0.3450363965     0.7403461846
Bq         1.0536179859     0.3352094263     0.5426969554
Bq         1.0101901268     0.3499498816     0.8391707992
Bq         1.0680939389     0.3302959413     0.4438723408
Bq         0.9957141737     0.3548633667     0.9379954138
Bq         1.0825698920     0.3253824562     0.3450477262
Bq         0.9812382207     0.3597768518     1.0368200283
Bq         1.0970458450     0.3204689711     0.2462231117
Bq         0.9667622676     0.3646903368     1.1356446429
Bq         1.1115217981     0.3155554860     0.1473984971
Bq         1.0391420329     0.3401229114     0.6415215700
Bq         1.0253782138     0.4449156119     0.7354845798
Bq         1.0543301198     0.4350886417     0.5378353506
Bq         1.0109022607     0.4498290970     0.8343091944
Bq         1.0688060729     0.4301751566     0.4390107361
Bq         0.9964263077     0.4547425820     0.9331338090
Bq         1.0832820259     0.4252616716     0.3401861215
Bq         0.9819503546     0.4596560671     1.0319584236
Bq         1.0977579790     0.4203481865     0.2413615069
Bq         0.9674744016     0.4645695522     1.1307830382
Bq         1.1122339320     0.4154347014     0.1425368923
Bq         1.0398541668     0.4400021268     0.6366599652
Bq         1.0260903477     0.5447948273     0.7306229751
Bq         1.0550422538     0.5349678571     0.5329737459
Bq         1.0116143947     0.5497083123     0.8294475896
Bq         1.0695182068     0.5300543720     0.4341491313
Bq         0.9971384416     0.5546217974     0.9282722042
Bq         1.0839941599     0.5251408869     0.3353245167
Bq         0.9826624886     0.5595352825     1.0270968188
Bq         1.0984701129     0.5202274018     0.2364999021
Bq         0.9681865355     0.5644487676     1.1259214334
Bq         1.1129460660     0.5153139168     0.1376752875
Bq         1.0405663007     0.5398813422     0.6317983605
Bq         1.0268024816     0.6446740426     0.7257613703
Bq         1.0557543877     0.6348470725     0.5281121411
Bq         1.0123265286     0.6495875277     0.8245859849
Bq         1.0702303408     0.6299335874     0.4292875265
Bq         0.9978505756     0.6545010128     0.9234105995
Bq         1.0847062938     0.6250201023     0.3304629119
Bq         0.9833746225     0.6594144979     1.0222352140
Bq         1.0991822469     0.6201066172     0.2316382974
Bq         0.9688986695     0.6643279830     1.1210598286
Bq         1.1136581999     0.6151931321     0.1328136828
Bq         1.0412784347     0.6397605576     0.6269367557
Bq         1.0275146156     0.7445532580     0.7208997655
Bq         1.0564665217     0.7347262878     0.5232505364
Bq         1.0130386625     0.7494667431     0.8197243801
Bq         1.0709424747     0.7298128028     0.4244259218
Bq         0.9985627095     0.7543802282     0.9185489947
Bq         1.0854184278     0.7248993177     0.3256013072
Bq         0.9840867564     0.7592937133     1.0173736093
Bq         1.0998943808     0.7199858326     0.2267766926
Bq         0.9696108034     0.7642071983     1.1161982239
Bq         1.1143703338     0.7150723475     0.1279520780
Bq         1.0419905686     0.7396397729     0.6220751509
Bq         1.0282267495     0.8444324734     0.7160381608
Bq         1.0571786556     0.8346055032     0.5183889316
Bq         1.0137507965     0.8493459585     0.8148627753
Bq         1.0716546087     0.8296920181     0.4195643170
Bq         0.9992748434     0.8542594436     0.9136873899
Bq         1.0861305617     0.8247785331     0.3207397024
Bq         0.9847988904     0.8591729286     1.0125120045
Bq         1.1006065147     0.8198650480     0.2219150878
Bq         0.9703229373     0.8640864137     1.1113366191
Bq         1.1150824678     0.8149515629     0.1230904732
Bq         1.0427027026     0.8395189883     0.6172135462
Bq         1.0289388835     0.9443116888     0.7111765560
Bq         1.0578907896     0.9344847186     0.5135273268
Bq         1.0144629304     0.9492251739     0.8100011706
Bq         1.0723667426     0.9295712335     0.4147027122
Bq         0.9999869774     0.9541386589     0.9088257852
Bq         1.0868426956     0.9246577484     0.3158780976
Bq         0.9855110243     0.9590521440     1.0076503997
Bq         1.1013186487     0.9197442634     0.2170534831
Bq         0.9710350713     0.9639656291     1.1064750143
Bq         1.1157946017     0.9148307783     0.1182288685
Bq         1.0434148365     0.9393982037     0.6123519414
Bq         1.0296510174     1.0441909041     0.7063149512
Bq         1.0586029235     1.0343639340     0.5086657221
Bq         1.0151750644     1.0491043892     0.8051395658
Bq         1.0730788765     1.0294504489     0.4098411075
Bq         1.0006991113     1.0540178743     0.9039641804
Bq         1.0875548296     1.0245369638     0.3110164929
Bq         0.9862231583     1.0589313594     1.0027887950
Bq         1.1020307826     1.0196234787     0.2121918783
Bq         0.9717472052     1.0638448445     1.1016134096
Bq         1.1165067357     1.0147099936     0.1133672637
Bq         1.0441269705     1.0392774191     0.6074903366
Bq         1.0303631513     1.1440701195     0.7014533465
Bq         1.0593150574     1.1342431494     0.5038041173
Bq         1.0158871983     1.1489836046     0.8002779610
Bq         1.0737910105     1.1293296643     0.4049795027
Bq         1.0014112453     1.1538970897     0.8991025756
Bq         1.0882669635     1.1244161792     0.3061548881
Bq         0.9869352922     1.1588105748     0.9979271902
Bq         1.1027429166     1.1195026941     0.2073302735
Bq         0.9724593392     1.1637240599     1.0967518048
Bq         1.1172188696     1.1145892090     0.1085056589
Bq         1.0448391044     1.1391566344     0.6026287319
Bq         1.0310752853     1.2439493349     0.6965917417
Bq         1.0600271914     1.2341223647     0.4989425125
Bq         1.0165993322     1.2488628200     0.7954163563
Bq         1.0745031444     1.2292088797     0.4001178979

1
2
3
4
5
6
7
8
9
10
11
12
13
14
15
16
17
18
19
20
21
22
23
24
25
26
27
28
29
30
31
32
33
34
35
36
37
38
39
40
41
42
43
44
45
46
47
48
49
50
51
52
53
54
55
56
57
58
59
60
61
62
63
64
65
66
67
68
69
70
71
72
73
74
75
76
77
78
79
80
81
82
83
84
85
86
87
88
89
90
91
92
93
94
95
96
97
98
99
100
101
102
103
104
105
106
107
108
109
110
111
112
113
114
115
116
117
118
119
120
121
122
123
124
125
126
127
128
129
130
131
132
133
134
135
136
137
138
139
140
141
142
143
144
145
146
147
148
149
150
151
152
153
154
155
156
157
158
159
160
161
162
163
164
165
166
167
168
169
170
171
172
173
174
175
176
177
178
179
180
181
182
183
184
185
186
187
188
189
190
191
192
193
194
195
196
197
198
199
200
201
202
203
204
205
206
207
208
209
210
211
212
213
214
215
216
217
218
219
220
221
222
223
224
225
226
227
228
229
230
231
232
233
234
235
236

