%nproc=8
%mem=1000MB
# rb3lyp/6-311+g** NMR geom=connectivity

Title

0 1
C    -4.0500558   -0.5771862    0.8136712
H    -5.0263804   -1.0082727    1.0024760
C    -3.9381552    0.6617804    0.2400876
H    -4.8252424    1.2338890   -0.0111295
C    -2.6768410    1.2433246    0.0057578
C    -1.4974121    0.5051527    0.2848253
C    -1.6508332   -0.7338728    0.9404026
H    -0.7713646   -1.2730967    1.2633753
C    -2.8898548   -1.2624035    1.1994307
H    -2.9683706   -2.2124563    1.7152676
C    -2.5773185    2.5963696   -0.4192930
H    -3.4870728    3.1412239   -0.6474055
C    -1.3741895    3.2147896   -0.4364030
H    -1.2997315    4.2742019   -0.6578144
C    -0.1719488    2.4994090   -0.1734588
C    -0.2043917    1.1018437    0.0192689
C     1.0513491    3.2042560   -0.0676222
H     1.0427344    4.2819499   -0.1896997
C     2.1942091    2.5487446    0.2579577
H     3.1168527    3.0912848    0.4334727
C     2.2216473    1.1336562    0.2934990
C     1.0486931    0.3945528    0.0302412
C     3.4483363    0.4614633    0.5573939
H     4.3095794    1.0606054    0.8334846
C     3.5427346   -0.8855926    0.4749463
H     4.4731467   -1.3939704    0.7038822
C     2.4490052   -1.6474447   -0.0196319
C     1.2150704   -1.0057258   -0.3013573
C     0.2531113   -1.7434440   -1.0216591
H    -0.6541356   -1.2535051   -1.3462847
C     0.4494193   -3.0628597   -1.3413779
H    -0.3083162   -3.5944309   -1.9054060
C     1.6251726   -3.7207967   -0.9552541
H     1.7670048   -4.7687404   -1.1927019
C     2.6109872   -3.0144177   -0.3183050
H     3.5525612   -3.4902813   -0.0646367
Bq         3.0363445267    -1.7577607887     0.9783828750
Bq         3.1904177126    -1.6723948346     0.4048202305
Bq         3.0106656623    -1.7719884478     1.0739766491
Bq         3.2160965769    -1.6581671755     0.3092264564
Bq         2.9849867980    -1.7862161068     1.1695704232
Bq         3.2417754412    -1.6439395165     0.2136326823
Bq         3.1133811196    -1.7150778116     0.6916015528
Bq         3.0840112048    -1.6303227766     0.8009358664
Bq         3.1353689334    -1.6018674586     0.6097483182
Bq         3.0583323405    -1.6445504357     0.8965296405
Bq         3.1610477977    -1.5876397995     0.5141545441
Bq         3.0326534761    -1.6587780947     0.9921234146
Bq         3.1867266621    -1.5734121405     0.4185607700
Bq         3.0069746118    -1.6730057537     1.0877171887
Bq         3.2124055264    -1.5591844815     0.3229669959
Bq         2.9812957475    -1.6872334127     1.1833109628
Bq         3.2380843907    -1.5449568225     0.2273732218
Bq         3.1096900691    -1.6160951176     0.7053420923
Bq         3.0803201542    -1.5313400826     0.8146764060
Bq         3.1316778829    -1.5028847645     0.6234888578
Bq         3.0546412899    -1.5455677416     0.9102701801
Bq         3.1573567472    -1.4886571055     0.5278950837
Bq         3.0289624256    -1.5597954007     1.0058639542
Bq         3.1830356115    -1.4744294465     0.4323013096
Bq         3.0032835613    -1.5740230597     1.1014577282
Bq         3.2087144759    -1.4602017875     0.3367075355
Bq         2.9776046970    -1.5882507187     1.1970515023
Bq         3.2343933402    -1.4459741284     0.2411137614
Bq         3.1059990186    -1.5171124236     0.7190826319
Bq         3.0766291037    -1.4323573886     0.8284169455
Bq         3.1279868324    -1.4039020705     0.6372293973
Bq         3.0509502394    -1.4465850476     0.9240107196
Bq         3.1536656967    -1.3896744115     0.5416356232
Bq         3.0252713751    -1.4608127066     1.0196044937
Bq         3.1793445610    -1.3754467524     0.4460418491
Bq         2.9995925107    -1.4750403656     1.1151982678
Bq         3.2050234253    -1.3612190934     0.3504480750
Bq         2.9739136464    -1.4892680247     1.2107920419
Bq         3.2307022896    -1.3469914344     0.2548543010
Bq         3.1023079680    -1.4181297295     0.7328231714
Bq         3.0729380532    -1.3333746945     0.8421574851
Bq         3.1242957818    -1.3049193765     0.6509699369
Bq         3.0472591888    -1.3476023536     0.9377512592
Bq         3.1499746461    -1.2906917174     0.5553761628
Bq         3.0215803245    -1.3618300126     1.0333450333
Bq         3.1756535105    -1.2764640584     0.4597823887
Bq         2.9959014602    -1.3760576716     1.1289388074
Bq         3.2013323748    -1.2622363994     0.3641886146
Bq         2.9702225959    -1.3902853306     1.2245325815
Bq         3.2270112391    -1.2480087404     0.2685948405
Bq         3.0986169175    -1.3191470355     0.7465637110
Bq         3.0692470026    -1.2343920005     0.8558980246
Bq         3.1206047313    -1.2059366824     0.6647104764
Bq         3.0435681383    -1.2486196595     0.9514917987
Bq         3.1462835956    -1.1917090234     0.5691167024
Bq         3.0178892740    -1.2628473185     1.0470855728
Bq         3.1719624599    -1.1774813644     0.4735229283
Bq         2.9922104097    -1.2770749776     1.1426793469
Bq         3.1976413242    -1.1632537054     0.3779291542
Bq         2.9665315453    -1.2913026366     1.2382731210
Bq         3.2233201886    -1.1490260463     0.2823353801
Bq         3.0949258670    -1.2201643415     0.7603042505
Bq         3.0655559521    -1.1354093065     0.8696385642
Bq         3.1169136807    -1.1069539884     0.6784510160
Bq         3.0398770878    -1.1496369655     0.9652323383
Bq         3.1425925451    -1.0927263294     0.5828572419
Bq         3.0141982235    -1.1638646245     1.0608261124
Bq         3.1682714094    -1.0784986703     0.4872634678
Bq         2.9885193591    -1.1780922835     1.1564198865
Bq         3.1939502737    -1.0642710113     0.3916696937
Bq         2.9628404948    -1.1923199426     1.2520136606
Bq         3.2196291380    -1.0500433523     0.2960759196
Bq         3.0912348164    -1.1211816474     0.7740447901
Bq         3.0618649016    -1.0364266124     0.8833791038
Bq         3.1132226302    -1.0079712944     0.6921915556
Bq         3.0361860372    -1.0506542714     0.9789728779
Bq         3.1389014945    -0.9937436353     0.5965977815
Bq         3.0105071729    -1.0648819305     1.0745666519
Bq         3.1645803589    -0.9795159763     0.5010040074
Bq         2.9848283086    -1.0791095895     1.1701604260
Bq         3.1902592232    -0.9652883173     0.4054102333
Bq         2.9591494443    -1.0933372485     1.2657542001
Bq         3.2159380875    -0.9510606583     0.3098164592
Bq         3.0875437659    -1.0221989534     0.7877853297
Bq         3.0581738510    -0.9374439184     0.8971196433
Bq         3.1095315797    -0.9089886003     0.7059320951
Bq         3.0324949867    -0.9516715774     0.9927134174
Bq         3.1352104440    -0.8947609413     0.6103383210
Bq         3.0068161224    -0.9658992364     1.0883071915
Bq         3.1608893083    -0.8805332823     0.5147445469
Bq         2.9811372581    -0.9801268955     1.1839009656
Bq         3.1865681726    -0.8663056232     0.4191507728
Bq         2.9554583937    -0.9943545545     1.2794947397
Bq         3.2122470370    -0.8520779642     0.3235569987
Bq         3.0838527154    -0.9232162594     0.8015258692
Bq         3.0544828005    -0.8384612243     0.9108601829
Bq         3.1058405291    -0.8100059063     0.7196726347
Bq         3.0288039362    -0.8526888834     1.0064539570
Bq         3.1315193935    -0.7957782473     0.6240788606
Bq         3.0031250718    -0.8669165424     1.1020477311
Bq         3.1571982578    -0.7815505882     0.5284850865
Bq         2.9774462075    -0.8811442014     1.1976415052
Bq         3.1828771221    -0.7673229292     0.4328913124
Bq         2.9517673432    -0.8953718605     1.2932352793
Bq         3.2085559864    -0.7530952702     0.3372975383
Bq         3.0801616648    -0.8242335653     0.8152664088
Bq         3.0507917500    -0.7394785303     0.9246007224
Bq         3.1021494786    -0.7110232123     0.7334131742
Bq         3.0251128856    -0.7537061893     1.0201944965
Bq         3.1278283429    -0.6967955532     0.6378194001
Bq         2.9994340213    -0.7679338484     1.1157882706
Bq         3.1535072072    -0.6825678942     0.5422256261
Bq         2.9737551570    -0.7821615074     1.2113820447
Bq         3.1791860716    -0.6683402352     0.4466318520
Bq         2.9480762927    -0.7963891664     1.3069758188
Bq         3.2048649359    -0.6541125761     0.3510380779
Bq         3.0764706143    -0.7252508713     0.8290069483
Bq         3.0471006994    -0.6404958363     0.9383412620
Bq         3.0984584281    -0.6120405182     0.7471537138
Bq         3.0214218351    -0.6547234953     1.0339350361
Bq         3.1241372924    -0.5978128592     0.6515599397
Bq         2.9957429708    -0.6689511543     1.1295288102
Bq         3.1498161567    -0.5835852002     0.5559661656
Bq         2.9700641065    -0.6831788134     1.2251225843
Bq         3.1754950210    -0.5693575411     0.4603723915
Bq         2.9443852421    -0.6974064724     1.3207163584
Bq         3.2011738854    -0.5551298821     0.3647786174
Bq         3.0727795637    -0.6262681772     0.8427474879
Bq         3.0434096489    -0.5415131422     0.9520818016
Bq         3.0947673775    -0.5130578242     0.7608942534
Bq         3.0177307846    -0.5557408013     1.0476755756
Bq         3.1204462419    -0.4988301652     0.6653004793
Bq         2.9920519202    -0.5699684603     1.1432693497
Bq         3.1461251062    -0.4846025061     0.5697067052
Bq         2.9663730559    -0.5841961193     1.2388631238
Bq         3.1718039705    -0.4703748471     0.4741129311
Bq         2.9406941916    -0.5984237784     1.3344568979
Bq         3.1974828348    -0.4561471881     0.3785191570
Bq         3.0690885132    -0.5272854832     0.8564880275
Bq         3.0397185984    -0.4425304482     0.9658223411
Bq         3.0910763270    -0.4140751301     0.7746347929
Bq         3.0140397340    -0.4567581072     1.0614161152
Bq         3.1167551913    -0.3998474711     0.6790410188
Bq         2.9883608697    -0.4709857663     1.1570098893
Bq         3.1424340556    -0.3856198121     0.5834472447
Bq         2.9626820054    -0.4852134253     1.2526036634
Bq         3.1681129200    -0.3713921531     0.4878534706
Bq         2.9370031411    -0.4994410843     1.3481974375
Bq         3.1937917843    -0.3571644940     0.3922596965
Bq         3.0653974627    -0.4283027892     0.8702285670
Bq         3.0360275478    -0.3435477542     0.9795628807
Bq         3.0873852765    -0.3150924361     0.7883753325
Bq         3.0103486835    -0.3577754132     1.0751566548
Bq         3.1130641408    -0.3008647771     0.6927815584
Bq         2.9846698192    -0.3720030722     1.1707504289
Bq         3.1387430051    -0.2866371181     0.5971877843
Bq         2.9589909548    -0.3862307313     1.2663442030
Bq         3.1644218694    -0.2724094590     0.5015940102
Bq         2.9333120905    -0.4004583903     1.3619379770
Bq         3.1901007338    -0.2581818000     0.4060002361
Bq         3.0617064121    -0.3293200951     0.8839691066
Bq         3.0323364973    -0.2445650601     0.9933034202
Bq         3.0836942259    -0.2161097421     0.8021158720
Bq         3.0066576330    -0.2587927192     1.0888971943
Bq         3.1093730902    -0.2018820830     0.7065220979
Bq         2.9809787686    -0.2730203782     1.1844909684
Bq         3.1350519546    -0.1876544240     0.6109283238
Bq         2.9552999043    -0.2872480372     1.2800847425
Bq         3.1607308189    -0.1734267650     0.5153345498
Bq         2.9296210400    -0.3014756962     1.3756785166
Bq         3.1864096832    -0.1591991060     0.4197407757
Bq         3.0580153616    -0.2303374011     0.8977096461
Bq         3.0286454467    -0.1455823661     1.0070439598
Bq         3.0800031754    -0.1171270480     0.8158564116
Bq         3.0029665824    -0.1598100251     1.1026377339
Bq         3.1056820397    -0.1028993890     0.7202626375
Bq         2.9772877181    -0.1740376842     1.1982315080
Bq         3.1313609040    -0.0886717300     0.6246688634
Bq         2.9516088538    -0.1882653432     1.2938252821
Bq         3.1570397684    -0.0744440710     0.5290750893
Bq         2.9259299895    -0.2024930022     1.3894190562
Bq         3.1827186327    -0.0602164119     0.4334813152
Bq         3.0543243111    -0.1313547071     0.9114501857
Bq         3.0249543962    -0.0465996721     1.0207844993
Bq         3.0763121249    -0.0181443540     0.8295969512
Bq         2.9992755319    -0.0608273311     1.1163782734
Bq         3.1019909892    -0.0039166950     0.7340031771
Bq         2.9735966676    -0.0750549901     1.2119720475
Bq         3.1276698535     0.0103109641     0.6384094030
Bq         2.9479178032    -0.0892826491     1.3075658216
Bq         3.1533487178     0.0245386231     0.5428156289
Bq         2.9222389389    -0.1035103082     1.4031595957
Bq         3.1790275821     0.0387662821     0.4472218548
Bq         3.0506332605    -0.0323720130     0.9251907253
Bq         3.0212633457     0.0523830220     1.0345250389
Bq         3.0726210743     0.0808383400     0.8433374907
Bq         2.9955844814     0.0381553629     1.1301188130
Bq         3.0982999386     0.0950659991     0.7477437166
Bq         2.9699056170     0.0239277039     1.2257125871
Bq         3.1239788030     0.1092936581     0.6521499425

1
2
3
4
5
6
7
8
9
10
11
12
13
14
15
16
17
18
19
20
21
22
23
24
25
26
27
28
29
30
31
32
33
34
35
36
37
38
39
40
41
42
43
44
45
46
47
48
49
50
51
52
53
54
55
56
57
58
59
60
61
62
63
64
65
66
67
68
69
70
71
72
73
74
75
76
77
78
79
80
81
82
83
84
85
86
87
88
89
90
91
92
93
94
95
96
97
98
99
100
101
102
103
104
105
106
107
108
109
110
111
112
113
114
115
116
117
118
119
120
121
122
123
124
125
126
127
128
129
130
131
132
133
134
135
136
137
138
139
140
141
142
143
144
145
146
147
148
149
150
151
152
153
154
155
156
157
158
159
160
161
162
163
164
165
166
167
168
169
170
171
172
173
174
175
176
177
178
179
180
181
182
183
184
185
186
187
188
189
190
191
192
193
194
195
196
197
198
199
200
201
202
203
204
205
206
207
208
209
210
211
212
213
214
215
216
217
218
219
220
221
222
223
224
225
226
227
228
229
230
231
232
233
234
235
236

