%nproc=8
%mem=1000MB
# rb3lyp/6-311+g** NMR geom=connectivity

Title

0 1
C    -4.0500558   -0.5771862    0.8136712
H    -5.0263804   -1.0082727    1.0024760
C    -3.9381552    0.6617804    0.2400876
H    -4.8252424    1.2338890   -0.0111295
C    -2.6768410    1.2433246    0.0057578
C    -1.4974121    0.5051527    0.2848253
C    -1.6508332   -0.7338728    0.9404026
H    -0.7713646   -1.2730967    1.2633753
C    -2.8898548   -1.2624035    1.1994307
H    -2.9683706   -2.2124563    1.7152676
C    -2.5773185    2.5963696   -0.4192930
H    -3.4870728    3.1412239   -0.6474055
C    -1.3741895    3.2147896   -0.4364030
H    -1.2997315    4.2742019   -0.6578144
C    -0.1719488    2.4994090   -0.1734588
C    -0.2043917    1.1018437    0.0192689
C     1.0513491    3.2042560   -0.0676222
H     1.0427344    4.2819499   -0.1896997
C     2.1942091    2.5487446    0.2579577
H     3.1168527    3.0912848    0.4334727
C     2.2216473    1.1336562    0.2934990
C     1.0486931    0.3945528    0.0302412
C     3.4483363    0.4614633    0.5573939
H     4.3095794    1.0606054    0.8334846
C     3.5427346   -0.8855926    0.4749463
H     4.4731467   -1.3939704    0.7038822
C     2.4490052   -1.6474447   -0.0196319
C     1.2150704   -1.0057258   -0.3013573
C     0.2531113   -1.7434440   -1.0216591
H    -0.6541356   -1.2535051   -1.3462847
C     0.4494193   -3.0628597   -1.3413779
H    -0.3083162   -3.5944309   -1.9054060
C     1.6251726   -3.7207967   -0.9552541
H     1.7670048   -4.7687404   -1.1927019
C     2.6109872   -3.0144177   -0.3183050
H     3.5525612   -3.4902813   -0.0646367
Bq         0.0584796757    -0.4638242967     0.4366552044
Bq         0.0150518165    -0.4490838414     0.7331290482
Bq         0.0729556287    -0.4687377818     0.3378305898
Bq         0.0005758635    -0.4441703563     0.8319536627
Bq         0.0874315817    -0.4736512668     0.2390059752
Bq        -0.0139000896    -0.4392568713     0.9307782773
Bq         0.1019075348    -0.4785647519     0.1401813607
Bq        -0.0283760426    -0.4343433862     1.0296028919
Bq         0.1163834878    -0.4834782370     0.0413567461
Bq         0.0440037226    -0.4589108116     0.5354798190
Bq         0.0302399035    -0.3541181111     0.6294428288
Bq         0.0591918096    -0.3639450813     0.4317935996
Bq         0.0157639505    -0.3492046261     0.7282674434
Bq         0.0736677626    -0.3688585664     0.3329689851
Bq         0.0012879974    -0.3442911410     0.8270920580
Bq         0.0881437157    -0.3737720515     0.2341443705
Bq        -0.0131879556    -0.3393776559     0.9259166726
Bq         0.1026196687    -0.3786855365     0.1353197559
Bq        -0.0276639087    -0.3344641708     1.0247412871
Bq         0.1170956218    -0.3835990216     0.0364951413
Bq         0.0447158566    -0.3590315962     0.5306182142
Bq         0.0309520374    -0.2542388958     0.6245812240
Bq         0.0599039435    -0.2640658659     0.4269319949
Bq         0.0164760844    -0.2493254107     0.7234058386
Bq         0.0743798966    -0.2689793510     0.3281073803
Bq         0.0020001314    -0.2444119256     0.8222304532
Bq         0.0888558496    -0.2738928361     0.2292827657
Bq        -0.0124758217    -0.2394984405     0.9210550678
Bq         0.1033318027    -0.2788063212     0.1304581511
Bq        -0.0269517747    -0.2345849554     1.0198796824
Bq         0.1178077557    -0.2837198063     0.0316335365
Bq         0.0454279905    -0.2591523808     0.5257566095
Bq         0.0316641714    -0.1543596804     0.6197196193
Bq         0.0606160775    -0.1641866505     0.4220703901
Bq         0.0171882183    -0.1494461953     0.7185442339
Bq         0.0750920305    -0.1691001356     0.3232457755
Bq         0.0027122653    -0.1445327102     0.8173688484
Bq         0.0895679836    -0.1740136207     0.2244211609
Bq        -0.0117636877    -0.1396192251     0.9161934630
Bq         0.1040439366    -0.1789271058     0.1255965464
Bq        -0.0262396408    -0.1347057400     1.0150180776
Bq         0.1185198897    -0.1838405909     0.0267719318
Bq         0.0461401244    -0.1592731655     0.5208950047
Bq         0.0323763053    -0.0544804650     0.6148580145
Bq         0.0613282114    -0.0643074352     0.4172087853
Bq         0.0179003523    -0.0495669799     0.7136826291
Bq         0.0758041645    -0.0692209203     0.3183841708
Bq         0.0034243992    -0.0446534948     0.8125072437
Bq         0.0902801175    -0.0741344053     0.2195595562
Bq        -0.0110515538    -0.0397400098     0.9113318583
Bq         0.1047560706    -0.0790478904     0.1207349416
Bq        -0.0255275068    -0.0348265247     1.0101564729
Bq         0.1192320236    -0.0839613755     0.0219103270
Bq         0.0468522584    -0.0593939501     0.5160333999
Bq         0.0330884393     0.0453987504     0.6099964097
Bq         0.0620403454     0.0355717802     0.4123471806
Bq         0.0186124862     0.0503122355     0.7088210243
Bq         0.0765162984     0.0306582951     0.3135225660
Bq         0.0041365332     0.0552257205     0.8076456389
Bq         0.0909922515     0.0257448100     0.2146979514
Bq        -0.0103394199     0.0601392056     0.9064702535
Bq         0.1054682045     0.0208313250     0.1158733368
Bq        -0.0248153729     0.0650526907     1.0052948681
Bq         0.1199441575     0.0159178399     0.0170487222
Bq         0.0475643923     0.0404852653     0.5111717952
Bq         0.0338005732     0.1452779658     0.6051348050
Bq         0.0627524793     0.1354509956     0.4074855758
Bq         0.0193246202     0.1501914508     0.7039594196
Bq         0.0772284323     0.1305375105     0.3086609612
Bq         0.0048486671     0.1551049359     0.8027840341
Bq         0.0917043854     0.1256240254     0.2098363466
Bq        -0.0096272859     0.1600184210     0.9016086487
Bq         0.1061803384     0.1207105403     0.1110117321
Bq        -0.0241032390     0.1649319061     1.0004332633
Bq         0.1206562915     0.1157970553     0.0121871175
Bq         0.0482765263     0.1403644807     0.5063101904
Bq         0.0345127072     0.2451571811     0.6002732002
Bq         0.0634646132     0.2353302110     0.4026239710
Bq         0.0200367541     0.2500706662     0.6990978148
Bq         0.0779405663     0.2304167259     0.3037993565
Bq         0.0055608011     0.2549841513     0.7979224294
Bq         0.0924165193     0.2255032408     0.2049747419
Bq        -0.0089151520     0.2598976364     0.8967470440
Bq         0.1068924724     0.2205897557     0.1061501273
Bq        -0.0233911050     0.2648111215     0.9955716586
Bq         0.1213684254     0.2156762706     0.0073255127
Bq         0.0489886602     0.2402436960     0.5014485856
Bq         0.0352248411     0.3450363965     0.5954115954
Bq         0.0641767472     0.3352094263     0.3977623663
Bq         0.0207488881     0.3499498816     0.6942362100
Bq         0.0786527002     0.3302959413     0.2989377517
Bq         0.0062729350     0.3548633667     0.7930608246
Bq         0.0931286533     0.3253824562     0.2001131371
Bq        -0.0082030180     0.3597768518     0.8918854392
Bq         0.1076046063     0.3204689711     0.1012885225
Bq        -0.0226789711     0.3646903368     0.9907100538
Bq         0.1220805594     0.3155554860     0.0024639079
Bq         0.0497007941     0.3401229114     0.4965869809
Bq         0.0359369750     0.4449156119     0.5905499907
Bq         0.0648888811     0.4350886417     0.3929007615
Bq         0.0214610220     0.4498290970     0.6893746053
Bq         0.0793648342     0.4301751566     0.2940761469
Bq         0.0069850690     0.4547425820     0.7881992198
Bq         0.0938407872     0.4252616716     0.1952515323
Bq        -0.0074908841     0.4596560671     0.8870238344
Bq         0.1083167403     0.4203481865     0.0964269178
Bq        -0.0219668371     0.4645695522     0.9858484490
Bq         0.1227926933     0.4154347014    -0.0023976968
Bq         0.0504129281     0.4400021268     0.4917253761
Bq         0.0366491090     0.5447948273     0.5856883859
Bq         0.0656010151     0.5349678571     0.3880391567
Bq         0.0221731559     0.5497083123     0.6845130005
Bq         0.0800769681     0.5300543720     0.2892145422
Bq         0.0076972029     0.5546217974     0.7833376151
Bq         0.0945529212     0.5251408869     0.1903899276
Bq        -0.0067787502     0.5595352825     0.8821622297
Bq         0.1090288742     0.5202274018     0.0915653130
Bq        -0.0212547032     0.5644487676     0.9809868443
Bq         0.1235048272     0.5153139168    -0.0072593016
Bq         0.0511250620     0.5398813422     0.4868637713
Bq         0.0373612429     0.6446740426     0.5808267811
Bq         0.0663131490     0.6348470725     0.3831775520
Bq         0.0228852899     0.6495875277     0.6796513957
Bq         0.0807891021     0.6299335874     0.2843529374
Bq         0.0084093368     0.6545010128     0.7784760103
Bq         0.0952650551     0.6250201023     0.1855283228
Bq        -0.0060666162     0.6594144979     0.8773006249
Bq         0.1097410081     0.6201066172     0.0867037082
Bq        -0.0205425693     0.6643279830     0.9761252395
Bq         0.1242169612     0.6151931321    -0.0121209064
Bq         0.0518371960     0.6397605576     0.4820021666
Bq         0.0380733769     0.7445532580     0.5759651764
Bq         0.0670252830     0.7347262878     0.3783159472
Bq         0.0235974238     0.7494667431     0.6747897910
Bq         0.0815012360     0.7298128028     0.2794913326
Bq         0.0091214708     0.7543802282     0.7736144055
Bq         0.0959771890     0.7248993177     0.1806667180
Bq        -0.0053544823     0.7592937133     0.8724390201
Bq         0.1104531421     0.7199858326     0.0818421035
Bq        -0.0198304353     0.7642071983     0.9712636347
Bq         0.1249290951     0.7150723475    -0.0169825111
Bq         0.0525493299     0.7396397729     0.4771405618
Bq         0.0387855108     0.8444324734     0.5711035716
Bq         0.0677374169     0.8346055032     0.3734543424
Bq         0.0243095578     0.8493459585     0.6699281862
Bq         0.0822133699     0.8296920181     0.2746297279
Bq         0.0098336047     0.8542594436     0.7687528008
Bq         0.0966893230     0.8247785331     0.1758051133
Bq        -0.0046423483     0.8591729286     0.8675774154
Bq         0.1111652760     0.8198650480     0.0769804987
Bq        -0.0191183014     0.8640864137     0.9664020300
Bq         0.1256412291     0.8149515629    -0.0218441159
Bq         0.0532614639     0.8395189883     0.4722789570
Bq         0.0394976447     0.9443116888     0.5662419668
Bq         0.0684495508     0.9344847186     0.3685927377
Bq         0.0250216917     0.9492251739     0.6650665814
Bq         0.0829255039     0.9295712335     0.2697681231
Bq         0.0105457387     0.9541386589     0.7638911960
Bq         0.0974014569     0.9246577484     0.1709435085
Bq        -0.0039302144     0.9590521440     0.8627158106
Bq         0.1118774100     0.9197442634     0.0721188939
Bq        -0.0184061674     0.9639656291     0.9615404252
Bq         0.1263533630     0.9148307783    -0.0267057207
Bq         0.0539735978     0.9393982037     0.4674173523
Bq         0.0402097787     1.0441909041     0.5613803621
Bq         0.0691616848     1.0343639340     0.3637311329
Bq         0.0257338256     1.0491043892     0.6602049767
Bq         0.0836376378     1.0294504489     0.2649065183
Bq         0.0112578726     1.0540178743     0.7590295912
Bq         0.0981135909     1.0245369638     0.1660819037
Bq        -0.0032180804     1.0589313594     0.8578542058
Bq         0.1125895439     1.0196234787     0.0672572892
Bq        -0.0176940335     1.0638448445     0.9566788204
Bq         0.1270654970     1.0147099936    -0.0315673254
Bq         0.0546857317     1.0392774191     0.4625557475
Bq         0.0409219126     1.1440701195     0.5565187573
Bq         0.0698738187     1.1342431494     0.3588695281
Bq         0.0264459596     1.1489836046     0.6553433719
Bq         0.0843497718     1.1293296643     0.2600449136
Bq         0.0119700065     1.1538970897     0.7541679865
Bq         0.0988257248     1.1244161792     0.1612202990
Bq        -0.0025059465     1.1588105748     0.8529926011
Bq         0.1133016779     1.1195026941     0.0623956844
Bq        -0.0169818995     1.1637240599     0.9518172157
Bq         0.1277776309     1.1145892090    -0.0364289302
Bq         0.0553978657     1.1391566344     0.4576941427
Bq         0.0416340466     1.2439493349     0.5516571525
Bq         0.0705859527     1.2341223647     0.3540079234
Bq         0.0271580935     1.2488628200     0.6504817671
Bq         0.0850619057     1.2292088797     0.2551833088
Bq         0.0126821405     1.2537763051     0.7493063817
Bq         0.0995378588     1.2242953946     0.1563586942
Bq        -0.0017938126     1.2586897901     0.8481309963
Bq         0.1140138118     1.2193819095     0.0575340796
Bq        -0.0162697656     1.2636032752     0.9469556109
Bq         0.1284897648     1.2144684244    -0.0412905350
Bq         0.0561099996     1.2390358498     0.4528325380
Bq         0.0423461805     1.3438285503     0.5467955478
Bq         0.0712980866     1.3340015801     0.3491463186
Bq         0.0278702275     1.3487420354     0.6456201624

1
2
3
4
5
6
7
8
9
10
11
12
13
14
15
16
17
18
19
20
21
22
23
24
25
26
27
28
29
30
31
32
33
34
35
36
37
38
39
40
41
42
43
44
45
46
47
48
49
50
51
52
53
54
55
56
57
58
59
60
61
62
63
64
65
66
67
68
69
70
71
72
73
74
75
76
77
78
79
80
81
82
83
84
85
86
87
88
89
90
91
92
93
94
95
96
97
98
99
100
101
102
103
104
105
106
107
108
109
110
111
112
113
114
115
116
117
118
119
120
121
122
123
124
125
126
127
128
129
130
131
132
133
134
135
136
137
138
139
140
141
142
143
144
145
146
147
148
149
150
151
152
153
154
155
156
157
158
159
160
161
162
163
164
165
166
167
168
169
170
171
172
173
174
175
176
177
178
179
180
181
182
183
184
185
186
187
188
189
190
191
192
193
194
195
196
197
198
199
200
201
202
203
204
205
206
207
208
209
210
211
212
213
214
215
216
217
218
219
220
221
222
223
224
225
226
227
228
229
230
231
232
233
234
235
236

