%nproc=8
%mem=1000MB
# rb3lyp/6-311+g** NMR geom=connectivity

Title

0 1
C    -4.0500558   -0.5771862    0.8136712
H    -5.0263804   -1.0082727    1.0024760
C    -3.9381552    0.6617804    0.2400876
H    -4.8252424    1.2338890   -0.0111295
C    -2.6768410    1.2433246    0.0057578
C    -1.4974121    0.5051527    0.2848253
C    -1.6508332   -0.7338728    0.9404026
H    -0.7713646   -1.2730967    1.2633753
C    -2.8898548   -1.2624035    1.1994307
H    -2.9683706   -2.2124563    1.7152676
C    -2.5773185    2.5963696   -0.4192930
H    -3.4870728    3.1412239   -0.6474055
C    -1.3741895    3.2147896   -0.4364030
H    -1.2997315    4.2742019   -0.6578144
C    -0.1719488    2.4994090   -0.1734588
C    -0.2043917    1.1018437    0.0192689
C     1.0513491    3.2042560   -0.0676222
H     1.0427344    4.2819499   -0.1896997
C     2.1942091    2.5487446    0.2579577
H     3.1168527    3.0912848    0.4334727
C     2.2216473    1.1336562    0.2934990
C     1.0486931    0.3945528    0.0302412
C     3.4483363    0.4614633    0.5573939
H     4.3095794    1.0606054    0.8334846
C     3.5427346   -0.8855926    0.4749463
H     4.4731467   -1.3939704    0.7038822
C     2.4490052   -1.6474447   -0.0196319
C     1.2150704   -1.0057258   -0.3013573
C     0.2531113   -1.7434440   -1.0216591
H    -0.6541356   -1.2535051   -1.3462847
C     0.4494193   -3.0628597   -1.3413779
H    -0.3083162   -3.5944309   -1.9054060
C     1.6251726   -3.7207967   -0.9552541
H     1.7670048   -4.7687404   -1.1927019
C     2.6109872   -3.0144177   -0.3183050
H     3.5525612   -3.4902813   -0.0646367
Bq         0.6075378774     3.4560325284     0.8281364449
Bq         0.7233455017     3.4167246478     0.0375395282
Bq         0.5930619243     3.4609460135     0.9269610595
Bq         0.7378214548     3.4118111627    -0.0612850863
Bq         0.6654416896     3.4363785881     0.4328379866
Bq         0.6516778705     3.5411712886     0.5268009964
Bq         0.6806297766     3.5313443184     0.3291517672
Bq         0.6372019174     3.5460847737     0.6256256110
Bq         0.6951057296     3.5264308333     0.2303271526
Bq         0.6227259644     3.5509982587     0.7244502256
Bq         0.7095816826     3.5215173482     0.1315025381
Bq         0.6082500113     3.5559117438     0.8232748402
Bq         0.7240576357     3.5166038632     0.0326779235
Bq         0.5937740583     3.5608252289     0.9220994547
Bq         0.7385335887     3.5116903781    -0.0661466911
Bq         0.6661538235     3.5362578035     0.4279763818
Bq         0.6523900044     3.6410505039     0.5219393916
Bq         0.6813419105     3.6312235338     0.3242901625
Bq         0.6379140514     3.6459639890     0.6207640062
Bq         0.6958178635     3.6263100487     0.2254655479
Bq         0.6234380983     3.6508774741     0.7195886208
Bq         0.7102938166     3.6213965636     0.1266409333
Bq         0.6089621453     3.6557909592     0.8184132354
Bq         0.7247697696     3.6164830785     0.0278163187
Bq         0.5944861922     3.6607044443     0.9172378500
Bq         0.7392457227     3.6115695935    -0.0710082959
Bq         0.6668659574     3.6361370189     0.4231147771
Bq         0.6531021383     3.7409297193     0.5170777869
Bq         0.6820540444     3.7311027492     0.3194285577
Bq         0.6386261853     3.7458432044     0.6159024015
Bq         0.6965299975     3.7261892641     0.2206039431
Bq         0.6241502323     3.7507566895     0.7147270160
Bq         0.7110059505     3.7212757790     0.1217793285
Bq         0.6096742792     3.7556701746     0.8135516306
Bq         0.7254819036     3.7163622939     0.0229547139
Bq         0.5951983262     3.7605836597     0.9123762452
Bq         0.7399578566     3.7114488088    -0.0758699006
Bq         0.6675780914     3.7360162342     0.4182531723
Bq         0.6538142723     3.8408089347     0.5122161821
Bq         0.6827661784     3.8309819645     0.3145669529
Bq         0.6393383192     3.8457224198     0.6110407967
Bq         0.6972421314     3.8260684795     0.2157423383
Bq         0.6248623662     3.8506359049     0.7098654113
Bq         0.7117180845     3.8211549944     0.1169177238
Bq         0.6103864132     3.8555493900     0.8086900259
Bq         0.7261940375     3.8162415093     0.0180931092
Bq         0.5959104601     3.8604628750     0.9075146404
Bq         0.7406699906     3.8113280242    -0.0807315054
Bq         0.6682902253     3.8358954496     0.4133915675
Bq         0.6545264062     3.9406881501     0.5073545773
Bq         0.6834783123     3.9308611799     0.3097053482
Bq         0.6400504532     3.9456016352     0.6061791919
Bq         0.6979542654     3.9259476948     0.2108807336
Bq         0.6255745001     3.9505151202     0.7050038065
Bq         0.7124302184     3.9210342098     0.1120561190
Bq         0.6110985471     3.9554286053     0.8038284211
Bq         0.7269061714     3.9161207247     0.0132315044
Bq         0.5966225941     3.9603420904     0.9026530357
Bq         0.7413821245     3.9112072396    -0.0855931102
Bq         0.6690023593     3.9357746650     0.4085299628
Bq         0.6552385402     4.0405673655     0.5024929726
Bq         0.6841904463     4.0307403953     0.3048437434
Bq         0.6407625871     4.0454808505     0.6013175872
Bq         0.6986663993     4.0258269102     0.2060191288
Bq         0.6262866341     4.0503943356     0.7001422017
Bq         0.7131423523     4.0209134251     0.1071945142
Bq         0.6118106810     4.0553078207     0.7989668163
Bq         0.7276183054     4.0159999400     0.0083698996
Bq         0.5973347280     4.0602213058     0.8977914309
Bq         0.7420942584     4.0110864550    -0.0904547149
Bq         0.6697144932     4.0356538804     0.4036683580
Bq         0.6559506741     4.1404465808     0.4976313678
Bq         0.6849025802     4.1306196107     0.2999821386
Bq         0.6414747211     4.1453600659     0.5964559824
Bq         0.6993785332     4.1257061256     0.2011575240
Bq         0.6269987680     4.1502735510     0.6952805970
Bq         0.7138544863     4.1207926405     0.1023329095
Bq         0.6125228150     4.1551870361     0.7941052116
Bq         0.7283304393     4.1158791554     0.0035082949
Bq         0.5980468619     4.1601005212     0.8929298261
Bq         0.7428063924     4.1109656703    -0.0953163197
Bq         0.6704266272     4.1355330958     0.3988067532
Bq         0.6566628081     4.2403257962     0.4927697630
Bq         0.6856147141     4.2304988260     0.2951205339
Bq         0.6421868550     4.2452392813     0.5915943776
Bq         0.7000906672     4.2255853410     0.1962959193
Bq         0.6277109020     4.2501527664     0.6904189922
Bq         0.7145666202     4.2206718559     0.0974713047
Bq         0.6132349489     4.2550662515     0.7892436068
Bq         0.7290425733     4.2157583708    -0.0013533099
Bq         0.5987589959     4.2599797365     0.8880682214
Bq         0.7435185263     4.2108448857    -0.1001779245
Bq         0.6711387611     4.2354123111     0.3939451485
Bq         0.6573749420     4.3402050116     0.4879081583
Bq         0.6863268481     4.3303780414     0.2902589291
Bq         0.6428989890     4.3451184967     0.5867327729
Bq         0.7008028011     4.3254645563     0.1914343145
Bq         0.6284230359     4.3500319818     0.6855573874
Bq         0.7152787542     4.3205510713     0.0926096999
Bq         0.6139470829     4.3549454668     0.7843820020
Bq         0.7297547072     4.3156375862    -0.0062149147
Bq         0.5994711298     4.3598589519     0.8832066166
Bq         0.7442306603     4.3107241011    -0.1050395292
Bq         0.6718508950     4.3352915265     0.3890835437
Bq         0.7207123688    -0.6537557573     0.7454818555
Bq         0.7496642749    -0.6635827274     0.5478326263
Bq         0.7062364157    -0.6488422722     0.8443064701
Bq         0.7641402279    -0.6684962125     0.4490080118
Bq         0.6917604627    -0.6439287871     0.9431310847
Bq         0.7786161810    -0.6734096976     0.3501833972
Bq         0.6772845096    -0.6390153020     1.0419556993
Bq         0.7930921340    -0.6783231827     0.2513587826
Bq         0.6628085566    -0.6341018169     1.1407803138
Bq         0.8075680870    -0.6832366678     0.1525341680
Bq         0.7351883218    -0.6586692423     0.6466572409
Bq         0.7214245027    -0.5538765419     0.7406202507
Bq         0.7503764088    -0.5637035121     0.5429710216
Bq         0.7069485497    -0.5489630568     0.8394448653
Bq         0.7648523619    -0.5686169971     0.4441464070
Bq         0.6924725966    -0.5440495717     0.9382694799
Bq         0.7793283149    -0.5735304822     0.3453217924
Bq         0.6779966436    -0.5391360866     1.0370940945
Bq         0.7938042679    -0.5784439673     0.2464971778
Bq         0.6635206905    -0.5342226016     1.1359187091
Bq         0.8082802210    -0.5833574524     0.1476725632
Bq         0.7359004558    -0.5587900270     0.6417956362
Bq         0.7221366367    -0.4539973265     0.7357586460
Bq         0.7510885428    -0.4638242967     0.5381094168
Bq         0.7076606836    -0.4490838414     0.8345832606
Bq         0.7655644958    -0.4687377818     0.4392848022
Bq         0.6931847306    -0.4441703563     0.9334078751
Bq         0.7800404488    -0.4736512668     0.3404601876
Bq         0.6787087775    -0.4392568713     1.0322324897
Bq         0.7945164019    -0.4785647519     0.2416355731
Bq         0.6642328245    -0.4343433862     1.1310571043
Bq         0.8089923549    -0.4834782370     0.1428109585
Bq         0.7366125897    -0.4589108116     0.6369340314
Bq         0.7228487706    -0.3541181111     0.7308970412
Bq         0.7518006767    -0.3639450813     0.5332478120
Bq         0.7083728176    -0.3492046261     0.8297216558
Bq         0.7662766297    -0.3688585664     0.4344231975
Bq         0.6938968645    -0.3442911410     0.9285462704
Bq         0.7807525828    -0.3737720515     0.3355985829
Bq         0.6794209115    -0.3393776559     1.0273708850
Bq         0.7952285358    -0.3786855365     0.2367739683
Bq         0.6649449584    -0.3344641708     1.1261954995
Bq         0.8097044889    -0.3835990216     0.1379493537
Bq         0.7373247237    -0.3590315962     0.6320724266
Bq         0.7235609045    -0.2542388958     0.7260354364
Bq         0.7525128106    -0.2640658659     0.5283862073
Bq         0.7090849515    -0.2493254107     0.8248600510
Bq         0.7669887637    -0.2689793510     0.4295615927
Bq         0.6946089985    -0.2444119256     0.9236846656
Bq         0.7814647167    -0.2738928361     0.3307369781
Bq         0.6801330454    -0.2394984405     1.0225092802
Bq         0.7959406698    -0.2788063212     0.2319123635
Bq         0.6656570924    -0.2345849554     1.1213338948
Bq         0.8104166228    -0.2837198063     0.1330877489
Bq         0.7380368576    -0.2591523808     0.6272108219
Bq         0.7242730385    -0.1543596804     0.7211738317
Bq         0.7532249446    -0.1641866505     0.5235246025
Bq         0.7097970854    -0.1494461953     0.8199984463
Bq         0.7677008976    -0.1691001356     0.4246999879
Bq         0.6953211324    -0.1445327102     0.9188230608
Bq         0.7821768507    -0.1740136207     0.3258753733
Bq         0.6808451794    -0.1396192251     1.0176476754
Bq         0.7966528037    -0.1789271058     0.2270507588
Bq         0.6663692263    -0.1347057400     1.1164722900
Bq         0.8111287568    -0.1838405909     0.1282261442
Bq         0.7387489915    -0.1592731655     0.6223492171
Bq         0.7249851724    -0.0544804650     0.7163122269
Bq         0.7539370785    -0.0643074352     0.5186629977
Bq         0.7105092194    -0.0495669799     0.8151368415
Bq         0.7684130316    -0.0692209203     0.4198383832
Bq         0.6960332663    -0.0446534948     0.9139614561
Bq         0.7828889846    -0.0741344053     0.3210137686
Bq         0.6815573133    -0.0397400098     1.0127860707
Bq         0.7973649377    -0.0790478904     0.2221891540
Bq         0.6670813603    -0.0348265247     1.1116106852
Bq         0.8118408907    -0.0839613755     0.1233645394
Bq         0.7394611255    -0.0593939501     0.6174876123
Bq         0.7256973064     0.0453987504     0.7114506221
Bq         0.7546492125     0.0355717802     0.5138013930
Bq         0.7112213533     0.0503122355     0.8102752367
Bq         0.7691251655     0.0306582951     0.4149767784
Bq         0.6967454003     0.0552257205     0.9090998513
Bq         0.7836011186     0.0257448100     0.3161521638
Bq         0.6822694472     0.0601392056     1.0079244659
Bq         0.7980770716     0.0208313250     0.2173275492
Bq         0.6677934942     0.0650526907     1.1067490805
Bq         0.8125530246     0.0159178399     0.1185029346
Bq         0.7401732594     0.0404852653     0.6126260076
Bq         0.7264094403     0.1452779658     0.7065890174
Bq         0.7553613464     0.1354509956     0.5089397882
Bq         0.7119334873     0.1501914508     0.8054136320
Bq         0.7698372994     0.1305375105     0.4101151736
Bq         0.6974575342     0.1551049359     0.9042382465
Bq         0.7843132525     0.1256240254     0.3112905590
Bq         0.6829815812     0.1600184210     1.0030628611
Bq         0.7987892055     0.1207105403     0.2124659445

1
2
3
4
5
6
7
8
9
10
11
12
13
14
15
16
17
18
19
20
21
22
23
24
25
26
27
28
29
30
31
32
33
34
35
36
37
38
39
40
41
42
43
44
45
46
47
48
49
50
51
52
53
54
55
56
57
58
59
60
61
62
63
64
65
66
67
68
69
70
71
72
73
74
75
76
77
78
79
80
81
82
83
84
85
86
87
88
89
90
91
92
93
94
95
96
97
98
99
100
101
102
103
104
105
106
107
108
109
110
111
112
113
114
115
116
117
118
119
120
121
122
123
124
125
126
127
128
129
130
131
132
133
134
135
136
137
138
139
140
141
142
143
144
145
146
147
148
149
150
151
152
153
154
155
156
157
158
159
160
161
162
163
164
165
166
167
168
169
170
171
172
173
174
175
176
177
178
179
180
181
182
183
184
185
186
187
188
189
190
191
192
193
194
195
196
197
198
199
200
201
202
203
204
205
206
207
208
209
210
211
212
213
214
215
216
217
218
219
220
221
222
223
224
225
226
227
228
229
230
231
232
233
234
235
236

