%nproc=8
%mem=1000MB
# rb3lyp/6-311+g** NMR geom=connectivity

Title

0 1
C    -4.0500558   -0.5771862    0.8136712
H    -5.0263804   -1.0082727    1.0024760
C    -3.9381552    0.6617804    0.2400876
H    -4.8252424    1.2338890   -0.0111295
C    -2.6768410    1.2433246    0.0057578
C    -1.4974121    0.5051527    0.2848253
C    -1.6508332   -0.7338728    0.9404026
H    -0.7713646   -1.2730967    1.2633753
C    -2.8898548   -1.2624035    1.1994307
H    -2.9683706   -2.2124563    1.7152676
C    -2.5773185    2.5963696   -0.4192930
H    -3.4870728    3.1412239   -0.6474055
C    -1.3741895    3.2147896   -0.4364030
H    -1.2997315    4.2742019   -0.6578144
C    -0.1719488    2.4994090   -0.1734588
C    -0.2043917    1.1018437    0.0192689
C     1.0513491    3.2042560   -0.0676222
H     1.0427344    4.2819499   -0.1896997
C     2.1942091    2.5487446    0.2579577
H     3.1168527    3.0912848    0.4334727
C     2.2216473    1.1336562    0.2934990
C     1.0486931    0.3945528    0.0302412
C     3.4483363    0.4614633    0.5573939
H     4.3095794    1.0606054    0.8334846
C     3.5427346   -0.8855926    0.4749463
H     4.4731467   -1.3939704    0.7038822
C     2.4490052   -1.6474447   -0.0196319
C     1.2150704   -1.0057258   -0.3013573
C     0.2531113   -1.7434440   -1.0216591
H    -0.6541356   -1.2535051   -1.3462847
C     0.4494193   -3.0628597   -1.3413779
H    -0.3083162   -3.5944309   -1.9054060
C     1.6251726   -3.7207967   -0.9552541
H     1.7670048   -4.7687404   -1.1927019
C     2.6109872   -3.0144177   -0.3183050
H     3.5525612   -3.4902813   -0.0646367
Bq        -0.9997256393    -0.4746070519    -0.6216501946
Bq        -1.0505938765    -0.4048297203    -0.5096522195
Bq        -0.9708703489    -0.3515984181    -0.6851816689
Bq        -1.0904556403    -0.4314453714    -0.4218874948
Bq        -0.9310085851    -0.3249827670    -0.7729463936
Bq        -1.1303174041    -0.4580610225    -0.3341227700
Bq        -0.8911468213    -0.2983671159    -0.8607111183
Bq        -1.1701791678    -0.4846766736    -0.2463580453
Bq        -0.8512850575    -0.2717514648    -0.9484758430
Bq        -1.2100409316    -0.5112923247    -0.1585933206
Bq        -0.8114232938    -0.2451358137    -1.0362405677
Bq        -1.0107321127    -0.3782140692    -0.5974169442
Bq        -1.0616003498    -0.3084367376    -0.4854189690
Bq        -0.9818768223    -0.2552054354    -0.6609484184
Bq        -1.1014621136    -0.3350523887    -0.3976542443
Bq        -0.9420150585    -0.2285897843    -0.7487131432
Bq        -1.1413238774    -0.3616680398    -0.3098895196
Bq        -0.9021532947    -0.2019741332    -0.8364778679
Bq        -1.1811856412    -0.3882836909    -0.2221247949
Bq        -0.8622915309    -0.1753584821    -0.9242425926
Bq        -1.2210474050    -0.4148993420    -0.1343600702
Bq        -0.8224297671    -0.1487428310    -1.0120073173
Bq        -1.0217385861    -0.2818210865    -0.5731836937
Bq        -1.0726068232    -0.2120437549    -0.4611857186
Bq        -0.9928832956    -0.1588124527    -0.6367151680
Bq        -1.1124685870    -0.2386594060    -0.3734209938
Bq        -0.9530215319    -0.1321968016    -0.7244798927
Bq        -1.1523303508    -0.2652750571    -0.2856562691
Bq        -0.9131597681    -0.1055811505    -0.8122446174
Bq        -1.1921921146    -0.2918907082    -0.1978915444
Bq        -0.8732980043    -0.0789654993    -0.9000093421
Bq        -1.2320538784    -0.3185063593    -0.1101268197
Bq        -0.8334362405    -0.0523498482    -0.9877740668
Bq        -1.0327450594    -0.1854281038    -0.5489504433
Bq        -1.0836132966    -0.1156507722    -0.4369524681
Bq        -1.0038897690    -0.0624194700    -0.6124819175
Bq        -1.1234750604    -0.1422664233    -0.3491877434
Bq        -0.9640280052    -0.0358038189    -0.7002466422
Bq        -1.1633368242    -0.1688820744    -0.2614230187
Bq        -0.9241662414    -0.0091881677    -0.7880113669
Bq        -1.2031985880    -0.1954977255    -0.1736582940
Bq        -0.8843044777     0.0174274834    -0.8757760917
Bq        -1.2430603517    -0.2221133766    -0.0858935692
Bq        -0.8444427139     0.0440431345    -0.9635408164
Bq        -1.0437515328    -0.0890351211    -0.5247171928
Bq        -0.4422407547    -4.9352999078    -1.6072616034
Bq        -0.3625172271    -4.8820686056    -1.7827910528
Bq        -0.4821025185    -4.9619155589    -1.5194968787
Bq        -0.3226554633    -4.8554529545    -1.8705557775
Bq        -0.5219642822    -4.9885312100    -1.4317321539
Bq        -0.2827936995    -4.8288373034    -1.9583205022
Bq        -0.5618260460    -5.0151468611    -1.3439674292
Bq        -0.2429319357    -4.8022216522    -2.0460852269
Bq        -0.6016878098    -5.0417625122    -1.2562027045
Bq        -0.2030701719    -4.7756060011    -2.1338499516
Bq        -0.4023789909    -4.9086842567    -1.6950263281
Bq        -0.4532472280    -4.8389069251    -1.5830283529
Bq        -0.3735237005    -4.7856756229    -1.7585578023
Bq        -0.4931089918    -4.8655225762    -1.4952636282
Bq        -0.3336619367    -4.7590599717    -1.8463225270
Bq        -0.5329707556    -4.8921382273    -1.4074989035
Bq        -0.2938001729    -4.7324443206    -1.9340872518
Bq        -0.5728325194    -4.9187538784    -1.3197341788
Bq        -0.2539384091    -4.7058286695    -2.0218519765
Bq        -0.6126942832    -4.9453695295    -1.2319694541
Bq        -0.2140766453    -4.6792130184    -2.1096167012
Bq        -0.4133854643    -4.8122912740    -1.6707930776
Bq        -0.4642537014    -4.7425139424    -1.5587951025
Bq        -0.3845301738    -4.6892826401    -1.7343245519
Bq        -0.5041154652    -4.7691295935    -1.4710303777
Bq        -0.3446684101    -4.6626669890    -1.8220892766
Bq        -0.5439772290    -4.7957452446    -1.3832656530
Bq        -0.3048066463    -4.6360513379    -1.9098540013
Bq        -0.5838389928    -4.8223608957    -1.2955009283
Bq        -0.2649448825    -4.6094356868    -1.9976187260
Bq        -0.6237007566    -4.8489765468    -1.2077362036
Bq        -0.2250831187    -4.5828200357    -2.0853834507
Bq        -0.4243919376    -4.7158982912    -1.6465598272
Bq        -0.4752601748    -4.6461209596    -1.5345618520
Bq        -0.3955366472    -4.5928896574    -1.7100913014
Bq        -0.5151219386    -4.6727366108    -1.4467971273
Bq        -0.3556748834    -4.5662740063    -1.7978560261
Bq        -0.5549837024    -4.6993522619    -1.3590324026
Bq        -0.3158131196    -4.5396583552    -1.8856207508
Bq        -0.5948454662    -4.7259679130    -1.2712676779
Bq        -0.2759513559    -4.5130427041    -1.9733854756
Bq        -0.6347072299    -4.7525835641    -1.1835029531
Bq        -0.2360895921    -4.4864270530    -2.0611502003
Bq        -0.4353984110    -4.6195053085    -1.6223265767
Bq        -0.4862666482    -4.5497279769    -1.5103286015
Bq        -0.4065431206    -4.4964966747    -1.6858580510
Bq        -0.5261284119    -4.5763436280    -1.4225638768
Bq        -0.3666813568    -4.4698810236    -1.7736227757
Bq        -0.5659901757    -4.6029592791    -1.3347991521
Bq        -0.3268195930    -4.4432653725    -1.8613875004
Bq        -0.6058519395    -4.6295749303    -1.2470344274
Bq        -0.2869578292    -4.4166497214    -1.9491522251
Bq        -0.6457137033    -4.6561905814    -1.1592697027
Bq        -0.2470960654    -4.3900340703    -2.0369169498
Bq        -0.4464048844    -4.5231123258    -1.5980933262
Bq        -0.4972731215    -4.4533349942    -1.4860953511
Bq        -0.4175495940    -4.4001036920    -1.6616248005
Bq        -0.5371348853    -4.4799506453    -1.3983306264
Bq        -0.3776878302    -4.3734880409    -1.7493895252
Bq        -0.5769966491    -4.5065662964    -1.3105659017
Bq        -0.3378260664    -4.3468723898    -1.8371542499
Bq        -0.6168584129    -4.5331819475    -1.2228011769
Bq        -0.2979643026    -4.3202567387    -1.9249189746
Bq        -0.6567201767    -4.5597975986    -1.1350364522
Bq        -0.2581025388    -4.2936410876    -2.0126836994
Bq        -0.4574113577    -4.4267193431    -1.5738600758
Bq        -0.5082795949    -4.3569420115    -1.4618621006
Bq        -0.4285560673    -4.3037107093    -1.6373915500
Bq        -0.5481413587    -4.3835576626    -1.3740973759
Bq        -0.3886943035    -4.2770950582    -1.7251562748
Bq        -0.5880031225    -4.4101733137    -1.2863326512
Bq        -0.3488325398    -4.2504794071    -1.8129209995
Bq        -0.6278648863    -4.4367889648    -1.1985679265
Bq        -0.3089707760    -4.2238637560    -1.9006857242
Bq        -0.6677266501    -4.4634046159    -1.1108032018
Bq        -0.2691090122    -4.1972481049    -1.9884504489
Bq        -0.4684178311    -4.3303263604    -1.5496268253
Bq        -0.5192860683    -4.2605490288    -1.4376288502
Bq        -0.4395625407    -4.2073177266    -1.6131582996
Bq        -0.5591478321    -4.2871646799    -1.3498641255
Bq        -0.3997007769    -4.1807020755    -1.7009230243
Bq        -0.5990095959    -4.3137803310    -1.2620994007
Bq        -0.3598390131    -4.1540864244    -1.7886877490
Bq        -0.6388713596    -4.3403959821    -1.1743346760
Bq        -0.3199772493    -4.1274707733    -1.8764524737
Bq        -0.6787331234    -4.3670116332    -1.0865699513
Bq        -0.2801154856    -4.1008551222    -1.9642171984
Bq        -0.4794243045    -4.2339333777    -1.5253935749
Bq        -0.5302925416    -4.1641560461    -1.4133955997
Bq        -0.4505690141    -4.1109247439    -1.5889250491
Bq        -0.5701543054    -4.1907716972    -1.3256308750
Bq        -0.4107072503    -4.0843090928    -1.6766897738
Bq        -0.6100160692    -4.2173873483    -1.2378661503
Bq        -0.3708454865    -4.0576934417    -1.7644544986
Bq        -0.6498778330    -4.2440029994    -1.1501014256
Bq        -0.3309837227    -4.0310777905    -1.8522192233
Bq        -0.6897395968    -4.2706186505    -1.0623367009
Bq        -0.2911219589    -4.0044621394    -1.9399839480
Bq        -0.4904307779    -4.1375403950    -1.5011603244
Bq        -0.5412990150    -4.0677630634    -1.3891623492
Bq        -0.4615754874    -4.0145317612    -1.5646917987
Bq        -0.5811607788    -4.0943787145    -1.3013976245
Bq        -0.4217137237    -3.9879161100    -1.6524565234
Bq        -0.6210225426    -4.1209943656    -1.2136328998
Bq        -0.3818519599    -3.9613004589    -1.7402212481
Bq        -0.6608843064    -4.1476100167    -1.1258681751
Bq        -0.3419901961    -3.9346848078    -1.8279859728
Bq        -0.7007460702    -4.1742256678    -1.0381034504
Bq        -0.3021284323    -3.9080691567    -1.9157506975
Bq        -0.5014372512    -4.0411474123    -1.4769270740
Bq        -0.5523054884    -3.9713700807    -1.3649290988
Bq        -0.4725819608    -3.9181387784    -1.5404585482
Bq        -0.5921672522    -3.9979857318    -1.2771643741
Bq        -0.4327201970    -3.8915231273    -1.6282232729
Bq        -0.6320290160    -4.0246013829    -1.1893996494
Bq        -0.3928584332    -3.8649074762    -1.7159879976
Bq        -0.6718907798    -4.0512170340    -1.1016349247
Bq        -0.3529966695    -3.8382918251    -1.8037527224
Bq        -0.7117525435    -4.0778326851    -1.0138701999
Bq        -0.3131349057    -3.8116761740    -1.8915174471
Bq        -0.5124437246    -3.9447544296    -1.4526938235
Bq        -0.5633119618    -3.8749770979    -1.3406958483
Bq        -0.4835884342    -3.8217457957    -1.5162252978
Bq        -0.6031737256    -3.9015927491    -1.2529311236
Bq        -0.4437266704    -3.7951301446    -1.6039900225
Bq        -0.6430354893    -3.9282084002    -1.1651663989
Bq        -0.4038649066    -3.7685144935    -1.6917547472
Bq        -0.6828972531    -3.9548240513    -1.0774016742
Bq        -0.3640031428    -3.7418988424    -1.7795194719
Bq        -0.7227590169    -3.9814397024    -0.9896369495
Bq        -0.3241413790    -3.7152831913    -1.8672841966
Bq        -0.5234501980    -3.8483614468    -1.4284605730
Bq        -0.5743184351    -3.7785841152    -1.3164625979
Bq        -0.4945949076    -3.7253528130    -1.4919920473
Bq        -0.6141801989    -3.8051997663    -1.2286978732
Bq        -0.4547331438    -3.6987371619    -1.5797567720
Bq        -0.6540419627    -3.8318154174    -1.1409331484
Bq        -0.4148713800    -3.6721215108    -1.6675214967
Bq        -0.6939037265    -3.8584310686    -1.0531684237
Bq        -0.3750096162    -3.6455058597    -1.7552862214
Bq        -0.7337654903    -3.8850467197    -0.9654036990
Bq        -0.3351478524    -3.6188902086    -1.8430509461
Bq        -0.5344566714    -3.7519684641    -1.4042273226
Bq        -0.5853249085    -3.6821911325    -1.2922293474
Bq        -0.5056013809    -3.6289598303    -1.4677587968
Bq        -0.6251866723    -3.7088067836    -1.2044646227
Bq        -0.4657396171    -3.6023441792    -1.5555235216
Bq        -0.6650484361    -3.7354224347    -1.1166998980
Bq        -0.4258778534    -3.5757285281    -1.6432882463
Bq        -0.7049101999    -3.7620380858    -1.0289351733
Bq        -0.3860160896    -3.5491128770    -1.7310529710
Bq        -0.7447719637    -3.7886537369    -0.9411704486
Bq        -0.3461543258    -3.5224972259    -1.8188176957
Bq        -0.5454631447    -3.6555754814    -1.3799940721
Bq        -0.5963313819    -3.5857981498    -1.2679960970

1
2
3
4
5
6
7
8
9
10
11
12
13
14
15
16
17
18
19
20
21
22
23
24
25
26
27
28
29
30
31
32
33
34
35
36
37
38
39
40
41
42
43
44
45
46
47
48
49
50
51
52
53
54
55
56
57
58
59
60
61
62
63
64
65
66
67
68
69
70
71
72
73
74
75
76
77
78
79
80
81
82
83
84
85
86
87
88
89
90
91
92
93
94
95
96
97
98
99
100
101
102
103
104
105
106
107
108
109
110
111
112
113
114
115
116
117
118
119
120
121
122
123
124
125
126
127
128
129
130
131
132
133
134
135
136
137
138
139
140
141
142
143
144
145
146
147
148
149
150
151
152
153
154
155
156
157
158
159
160
161
162
163
164
165
166
167
168
169
170
171
172
173
174
175
176
177
178
179
180
181
182
183
184
185
186
187
188
189
190
191
192
193
194
195
196
197
198
199
200
201
202
203
204
205
206
207
208
209
210
211
212
213
214
215
216
217
218
219
220
221
222
223
224
225
226
227
228
229
230
231
232
233
234
235
236

