%nproc=8
%mem=1000MB
# rb3lyp/6-311+g** NMR geom=connectivity

Title

0 1
C    -4.0500558   -0.5771862    0.8136712
H    -5.0263804   -1.0082727    1.0024760
C    -3.9381552    0.6617804    0.2400876
H    -4.8252424    1.2338890   -0.0111295
C    -2.6768410    1.2433246    0.0057578
C    -1.4974121    0.5051527    0.2848253
C    -1.6508332   -0.7338728    0.9404026
H    -0.7713646   -1.2730967    1.2633753
C    -2.8898548   -1.2624035    1.1994307
H    -2.9683706   -2.2124563    1.7152676
C    -2.5773185    2.5963696   -0.4192930
H    -3.4870728    3.1412239   -0.6474055
C    -1.3741895    3.2147896   -0.4364030
H    -1.2997315    4.2742019   -0.6578144
C    -0.1719488    2.4994090   -0.1734588
C    -0.2043917    1.1018437    0.0192689
C     1.0513491    3.2042560   -0.0676222
H     1.0427344    4.2819499   -0.1896997
C     2.1942091    2.5487446    0.2579577
H     3.1168527    3.0912848    0.4334727
C     2.2216473    1.1336562    0.2934990
C     1.0486931    0.3945528    0.0302412
C     3.4483363    0.4614633    0.5573939
H     4.3095794    1.0606054    0.8334846
C     3.5427346   -0.8855926    0.4749463
H     4.4731467   -1.3939704    0.7038822
C     2.4490052   -1.6474447   -0.0196319
C     1.2150704   -1.0057258   -0.3013573
C     0.2531113   -1.7434440   -1.0216591
H    -0.6541356   -1.2535051   -1.3462847
C     0.4494193   -3.0628597   -1.3413779
H    -0.3083162   -3.5944309   -1.9054060
C     1.6251726   -3.7207967   -0.9552541
H     1.7670048   -4.7687404   -1.1927019
C     2.6109872   -3.0144177   -0.3183050
H     3.5525612   -3.4902813   -0.0646367
Bq        -3.5830706269     1.7645691774     0.3786547389
Bq        -3.5823626357     1.6776037434     0.1985533451
Bq        -3.5834246224     1.8080518944     0.4687054358
Bq        -3.5820086401     1.6341210264     0.1085026482
Bq        -3.5837786180     1.8515346114     0.5587561326
Bq        -3.5816546446     1.5906383094     0.0184519513
Bq        -3.5841326136     1.8950173284     0.6488068295
Bq        -3.5813006490     1.5471555924    -0.0715987455
Bq        -3.5844866092     1.9385000454     0.7388575264
Bq        -3.5809466534     1.5036728754    -0.1616494424
Bq        -3.5827166313     1.7210864604     0.2886040420
Bq        -3.5828996946     1.8546205701     0.3351723578
Bq        -3.5821917034     1.7676551361     0.1550709641
Bq        -3.5832536902     1.8981032871     0.4252230547
Bq        -3.5818377079     1.7241724191     0.0650202672
Bq        -3.5836076857     1.9415860041     0.5152737516
Bq        -3.5814837123     1.6806897021    -0.0250304297
Bq        -3.5839616813     1.9850687211     0.6053244485
Bq        -3.5811297167     1.6372069851    -0.1150811266
Bq        -3.5843156769     2.0285514381     0.6953751454
Bq        -3.5807757211     1.5937242681    -0.2051318235
Bq        -3.5825456990     1.8111378531     0.2451216610
Bq        -3.5827287623     1.9446719628     0.2916899768
Bq        -3.5820207712     1.8577065288     0.1115885830
Bq        -3.5830827579     1.9881546798     0.3817406737
Bq        -3.5816667756     1.8142238118     0.0215378862
Bq        -3.5834367535     2.0316373968     0.4717913706
Bq        -3.5813127800     1.7707410947    -0.0685128107
Bq        -3.5837907490     2.0751201138     0.5618420675
Bq        -3.5809587844     1.7272583777    -0.1585635076
Bq        -3.5841447446     2.1186028308     0.6518927643
Bq        -3.5806047889     1.6837756607    -0.2486142045
Bq        -3.5823747667     1.9011892458     0.2016392799
Bq        -3.5825578300     2.0347233554     0.2482075958
Bq        -3.5818498389     1.9477579214     0.0681062020
Bq        -3.5829118256     2.0782060724     0.3382582927
Bq        -3.5814958433     1.9042752044    -0.0219444949
Bq        -3.5832658212     2.1216887894     0.4283089895
Bq        -3.5811418477     1.8607924874    -0.1119951918
Bq        -3.5836198168     2.1651715065     0.5183596864
Bq        -3.5807878522     1.8173097704    -0.2020458886
Bq        -3.5839738123     2.2086542235     0.6084103833
Bq        -3.5804338566     1.7738270534    -0.2920965855
Bq        -3.5822038345     1.9912406384     0.1581568989
Bq        -3.5823868978     2.1247747481     0.2047252147
Bq        -3.5816789066     2.0378093141     0.0246238210
Bq        -3.5827408933     2.1682574651     0.2947759116
Bq        -3.5813249110     1.9943265971    -0.0654268759
Bq        -3.5830948889     2.2117401821     0.3848266085
Bq        -3.5809709155     1.9508438801    -0.1554775728
Bq        -3.5834488845     2.2552228991     0.4748773054
Bq        -3.5806169199     1.9073611631    -0.2455282697
Bq        -3.5838028801     2.2987056161     0.5649280023
Bq        -3.5802629243     1.8638784461    -0.3355789666
Bq        -3.5820329022     2.0812920311     0.1146745179
Bq        -3.5822159655     2.2148261408     0.1612428337
Bq        -3.5815079743     2.1278607068    -0.0188585601
Bq        -3.5825699611     2.2583088578     0.2512935306
Bq        -3.5811539788     2.0843779898    -0.1089092569
Bq        -3.5829239566     2.3017915748     0.3413442275
Bq        -3.5807999832     2.0408952728    -0.1989599538
Bq        -3.5832779522     2.3452742918     0.4313949244
Bq        -3.5804459876     1.9974125558    -0.2890106507
Bq        -3.5836319478     2.3887570088     0.5214456212
Bq        -3.5800919920     1.9539298388    -0.3790613476
Bq        -3.5818619699     2.1713434238     0.0711921368
Bq        -3.5820450332     2.3048775334     0.1177604527
Bq        -3.5813370421     2.2179120994    -0.0623409411
Bq        -3.5823990288     2.3483602505     0.2078111496
Bq        -3.5809830465     2.1744293824    -0.1523916380
Bq        -3.5827530244     2.3918429675     0.2978618464
Bq        -3.5806290509     2.1309466654    -0.2424423349
Bq        -3.5831070199     2.4353256845     0.3879125433
Bq        -3.5802750553     2.0874639484    -0.3324930317
Bq        -3.5834610155     2.4788084015     0.4779632402
Bq        -3.5799210598     2.0439812314    -0.4225437286
Bq        -3.5816910376     2.2613948164     0.0277097558
Bq        -3.5818741009     2.3949289261     0.0742780716
Bq        -3.5811661098     2.3079634921    -0.1058233221
Bq        -3.5822280965     2.4384116431     0.1643287685
Bq        -3.5808121142     2.2644807751    -0.1958740190
Bq        -3.5825820921     2.4818943601     0.2543794654
Bq        -3.5804581186     2.2209980581    -0.2859247159
Bq        -3.5829360877     2.5253770771     0.3444301623
Bq        -3.5801041231     2.1775153411    -0.3759754128
Bq        -3.5832900832     2.5688597941     0.4344808592
Bq        -3.5797501275     2.1340326241    -0.4660261097
Bq        -3.5815201054     2.3514462091    -0.0157726252
Bq        -3.5817031687     2.4849803188     0.0307956906
Bq        -3.5809951775     2.3980148848    -0.1493057032
Bq        -3.5820571642     2.5284630358     0.1208463875
Bq        -3.5806411819     2.3545321678    -0.2393564000
Bq        -3.5824111598     2.5719457528     0.2108970844
Bq        -3.5802871864     2.3110494508    -0.3294070969
Bq        -3.5827651554     2.6154284698     0.3009477813
Bq        -3.5799331908     2.2675667338    -0.4194577938
Bq        -3.5831191510     2.6589111868     0.3909984781
Bq        -3.5795791952     2.2240840168    -0.5095084907
Bq        -3.5813491731     2.4414976018    -0.0592550063
Bq        -3.4902505551    -2.0175893147     2.2053078462
Bq        -3.4895425639    -2.1045547487     2.0252064524
Bq        -3.4906045506    -1.9741065977     2.2953585431
Bq        -3.4891885683    -2.1480374658     1.9351557555
Bq        -3.4909585462    -1.9306238807     2.3854092399
Bq        -3.4888345728    -2.1915201828     1.8451050586
Bq        -3.4913125418    -1.8871411637     2.4754599368
Bq        -3.4884805772    -2.2350028998     1.7550543618
Bq        -3.4916665374    -1.8436584467     2.5655106337
Bq        -3.4881265816    -2.2784856168     1.6650036649
Bq        -3.4898965595    -2.0610720317     2.1152571493
Bq        -3.4900796228    -1.9275379221     2.1618254651
Bq        -3.4893716316    -2.0145033561     1.9817240714
Bq        -3.4904336184    -1.8840552051     2.2518761620
Bq        -3.4890176361    -2.0579860731     1.8916733745
Bq        -3.4907876139    -1.8405724881     2.3419268589
Bq        -3.4886636405    -2.1014687901     1.8016226776
Bq        -3.4911416095    -1.7970897711     2.4319775558
Bq        -3.4883096449    -2.1449515071     1.7115719807
Bq        -3.4914956051    -1.7536070540     2.5220282527
Bq        -3.4879556493    -2.1884342241     1.6215212839
Bq        -3.4897256272    -1.9710206391     2.0717747683
Bq        -3.4899086905    -1.8374865294     2.1183430841
Bq        -3.4892006994    -1.9244519634     1.9382416903
Bq        -3.4902626861    -1.7940038124     2.2083937810
Bq        -3.4888467038    -1.9679346804     1.8481909935
Bq        -3.4906166817    -1.7505210954     2.2984444779
Bq        -3.4884927082    -2.0114173974     1.7581402966
Bq        -3.4909706772    -1.7070383784     2.3884951748
Bq        -3.4881387126    -2.0549001144     1.6680895997
Bq        -3.4913246728    -1.6635556614     2.4785458716
Bq        -3.4877847171    -2.0983828314     1.5780389028
Bq        -3.4895546949    -1.8809692464     2.0282923872
Bq        -3.4897377582    -1.7474351367     2.0748607031
Bq        -3.4890297671    -1.8344005707     1.8947593093
Bq        -3.4900917538    -1.7039524197     2.1649114000
Bq        -3.4886757715    -1.8778832877     1.8047086124
Bq        -3.4904457494    -1.6604697027     2.2549620968
Bq        -3.4883217759    -1.9213660047     1.7146579156
Bq        -3.4907997450    -1.6169869857     2.3450127937
Bq        -3.4879677804    -1.9648487217     1.6246072187
Bq        -3.4911537405    -1.5735042687     2.4350634906
Bq        -3.4876137848    -2.0083314388     1.5345565218
Bq        -3.4893837627    -1.7909178537     1.9848100062
Bq        -3.4895668260    -1.6573837441     2.0313783220
Bq        -3.4888588348    -1.7443491781     1.8512769283
Bq        -3.4899208215    -1.6139010270     2.1214290189
Bq        -3.4885048392    -1.7878318951     1.7612262314
Bq        -3.4902748171    -1.5704183100     2.2114797158
Bq        -3.4881508437    -1.8313146121     1.6711755345
Bq        -3.4906288127    -1.5269355930     2.3015304127
Bq        -3.4877968481    -1.8747973291     1.5811248376
Bq        -3.4909828083    -1.4834528760     2.3915811096
Bq        -3.4874428525    -1.9182800461     1.4910741408
Bq        -3.4892128304    -1.7008664611     1.9413276252
Bq        -3.4893958937    -1.5673323514     1.9878959410
Bq        -3.4886879025    -1.6542977854     1.8077945473
Bq        -3.4897498893    -1.5238496344     2.0779466379
Bq        -3.4883339070    -1.6977805024     1.7177438504
Bq        -3.4901038848    -1.4803669174     2.1679973348
Bq        -3.4879799114    -1.7412632194     1.6276931535
Bq        -3.4904578804    -1.4368842004     2.2580480317
Bq        -3.4876259158    -1.7847459364     1.5376424566
Bq        -3.4908118760    -1.3934014834     2.3480987285
Bq        -3.4872719202    -1.8282286534     1.4475917597
Bq        -3.4890418981    -1.6108150684     1.8978452441
Bq        -3.4892249614    -1.4772809587     1.9444135600
Bq        -3.4885169703    -1.5642463927     1.7643121662
Bq        -3.4895789570    -1.4337982417     2.0344642569
Bq        -3.4881629747    -1.6077291097     1.6742614693
Bq        -3.4899329526    -1.3903155247     2.1245149537
Bq        -3.4878089791    -1.6512118267     1.5842107725
Bq        -3.4902869481    -1.3468328077     2.2145656506
Bq        -3.4874549835    -1.6946945437     1.4941600756
Bq        -3.4906409437    -1.3033500907     2.3046163475
Bq        -3.4871009880    -1.7381772607     1.4041093787
Bq        -3.4888709658    -1.5207636757     1.8543628631
Bq        -3.4890540291    -1.3872295660     1.9009311790
Bq        -3.4883460380    -1.4741950001     1.7208297852
Bq        -3.4894080247    -1.3437468490     1.9909818758
Bq        -3.4879920424    -1.5176777171     1.6307790883
Bq        -3.4897620203    -1.3002641320     2.0810325727
Bq        -3.4876380468    -1.5611604341     1.5407283914
Bq        -3.4901160159    -1.2567814150     2.1710832696
Bq        -3.4872840513    -1.6046431511     1.4506776945
Bq        -3.4904700114    -1.2132986980     2.2611339665
Bq        -3.4869300557    -1.6481258681     1.3606269977
Bq        -3.4887000336    -1.4307122830     1.8108804821
Bq        -3.4888830969    -1.2971781734     1.8574487979
Bq        -3.4881751057    -1.3841436074     1.6773474042
Bq        -3.4892370924    -1.2536954564     1.9474994948
Bq        -3.4878211101    -1.4276263244     1.5872967073
Bq        -3.4895910880    -1.2102127394     2.0375501917
Bq        -3.4874671146    -1.4711090414     1.4972460104
Bq        -3.4899450836    -1.1667300224     2.1276008886
Bq        -3.4871131190    -1.5145917584     1.4071953135
Bq        -3.4902990792    -1.1232473054     2.2176515854
Bq        -3.4867591234    -1.5580744754     1.3171446166
Bq        -3.4885291013    -1.3406608904     1.7673981010
Bq        -3.4887121646    -1.2071267807     1.8139664169
Bq        -3.4880041734    -1.2940922147     1.6338650231

1
2
3
4
5
6
7
8
9
10
11
12
13
14
15
16
17
18
19
20
21
22
23
24
25
26
27
28
29
30
31
32
33
34
35
36
37
38
39
40
41
42
43
44
45
46
47
48
49
50
51
52
53
54
55
56
57
58
59
60
61
62
63
64
65
66
67
68
69
70
71
72
73
74
75
76
77
78
79
80
81
82
83
84
85
86
87
88
89
90
91
92
93
94
95
96
97
98
99
100
101
102
103
104
105
106
107
108
109
110
111
112
113
114
115
116
117
118
119
120
121
122
123
124
125
126
127
128
129
130
131
132
133
134
135
136
137
138
139
140
141
142
143
144
145
146
147
148
149
150
151
152
153
154
155
156
157
158
159
160
161
162
163
164
165
166
167
168
169
170
171
172
173
174
175
176
177
178
179
180
181
182
183
184
185
186
187
188
189
190
191
192
193
194
195
196
197
198
199
200
201
202
203
204
205
206
207
208
209
210
211
212
213
214
215
216
217
218
219
220
221
222
223
224
225
226
227
228
229
230
231
232
233
234
235
236

