%nproc=8
%mem=1000MB
# rb3lyp/6-311+g** NMR geom=connectivity

Title

0 1
C    -4.0500558   -0.5771862    0.8136712
H    -5.0263804   -1.0082727    1.0024760
C    -3.9381552    0.6617804    0.2400876
H    -4.8252424    1.2338890   -0.0111295
C    -2.6768410    1.2433246    0.0057578
C    -1.4974121    0.5051527    0.2848253
C    -1.6508332   -0.7338728    0.9404026
H    -0.7713646   -1.2730967    1.2633753
C    -2.8898548   -1.2624035    1.1994307
H    -2.9683706   -2.2124563    1.7152676
C    -2.5773185    2.5963696   -0.4192930
H    -3.4870728    3.1412239   -0.6474055
C    -1.3741895    3.2147896   -0.4364030
H    -1.2997315    4.2742019   -0.6578144
C    -0.1719488    2.4994090   -0.1734588
C    -0.2043917    1.1018437    0.0192689
C     1.0513491    3.2042560   -0.0676222
H     1.0427344    4.2819499   -0.1896997
C     2.1942091    2.5487446    0.2579577
H     3.1168527    3.0912848    0.4334727
C     2.2216473    1.1336562    0.2934990
C     1.0486931    0.3945528    0.0302412
C     3.4483363    0.4614633    0.5573939
H     4.3095794    1.0606054    0.8334846
C     3.5427346   -0.8855926    0.4749463
H     4.4731467   -1.3939704    0.7038822
C     2.4490052   -1.6474447   -0.0196319
C     1.2150704   -1.0057258   -0.3013573
C     0.2531113   -1.7434440   -1.0216591
H    -0.6541356   -1.2535051   -1.3462847
C     0.4494193   -3.0628597   -1.3413779
H    -0.3083162   -3.5944309   -1.9054060
C     1.6251726   -3.7207967   -0.9552541
H     1.7670048   -4.7687404   -1.1927019
C     2.6109872   -3.0144177   -0.3183050
H     3.5525612   -3.4902813   -0.0646367
Bq         0.9304142356     1.7350888206     0.7233157938
Bq         0.9817719642     1.7635441386     0.5321282456
Bq         0.9047353713     1.7208611616     0.8189095679
Bq         1.0074508286     1.7777717977     0.4365344716
Bq         0.8790565070     1.7066335025     0.9145033420
Bq         1.0331296929     1.7919994567     0.3409406975
Bq         0.8533776426     1.6924058435     1.0100971161
Bq         1.0588085572     1.8062271157     0.2453469234
Bq         0.8276987783     1.6781781845     1.1056908902
Bq         1.0844874215     1.8204547748     0.1497531493
Bq         0.9560930999     1.7493164796     0.6277220197
Bq         0.9267231851     1.8340715146     0.7370563334
Bq         0.9780809137     1.8625268327     0.5458687852
Bq         0.9010443207     1.8198438556     0.8326501075
Bq         1.0037597780     1.8767544917     0.4502750111
Bq         0.8753654564     1.8056161966     0.9282438816
Bq         1.0294386424     1.8909821507     0.3546812370
Bq         0.8496865921     1.7913885375     1.0238376557
Bq         1.0551175067     1.9052098098     0.2590874629
Bq         0.8240077278     1.7771608785     1.1194314298
Bq         1.0807963710     1.9194374688     0.1634936888
Bq         0.9524020494     1.8482991736     0.6414625593
Bq         0.9230321345     1.9330542087     0.7507968730
Bq         0.9743898632     1.9615095267     0.5596093248
Bq         0.8973532702     1.9188265496     0.8463906471
Bq         1.0000687275     1.9757371857     0.4640155507
Bq         0.8716744059     1.9045988906     0.9419844211
Bq         1.0257475918     1.9899648448     0.3684217766
Bq         0.8459955416     1.8903712316     1.0375781952
Bq         1.0514264561     2.0041925038     0.2728280025
Bq         0.8203166772     1.8761435725     1.1331719693
Bq         1.0771053205     2.0184201628     0.1772342284
Bq         0.9487109988     1.9472818677     0.6552030989
Bq         0.9193410840     2.0320369027     0.7645374125
Bq         0.9706988126     2.0604922207     0.5733498643
Bq         0.8936622197     2.0178092437     0.8601311866
Bq         0.9963776770     2.0747198798     0.4777560902
Bq         0.8679833553     2.0035815846     0.9557249607
Bq         1.0220565413     2.0889475388     0.3821623161
Bq         0.8423044910     1.9893539256     1.0513187348
Bq         1.0477354056     2.1031751978     0.2865685420
Bq         0.8166256267     1.9751262666     1.1469125089
Bq         1.0734142699     2.1174028569     0.1909747679
Bq         0.9450199483     2.0462645617     0.6689436384
Bq         0.9156500335     2.1310195967     0.7782779521
Bq         0.9670077621     2.1594749148     0.5870904039
Bq         0.8899711691     2.1167919377     0.8738717262
Bq         0.9926866264     2.1737025738     0.4914966298
Bq         0.8642923048     2.1025642787     0.9694655003
Bq         1.0183654907     2.1879302328     0.3959028557
Bq         0.8386134405     2.0883366196     1.0650592744
Bq         1.0440443551     2.2021578919     0.3003090816
Bq         0.8129345762     2.0741089606     1.1606530485
Bq         1.0697232194     2.2163855509     0.2047153075
Bq         0.9413288978     2.1452472558     0.6826841780
Bq         1.1967788103    -2.8181151051     0.1171937559
Bq         1.2481365389    -2.7896597870    -0.0739937923
Bq         1.1710999459    -2.8323427641     0.2127875300
Bq         1.2738154032    -2.7754321280    -0.1695875664
Bq         1.1454210816    -2.8465704231     0.3083813041
Bq         1.2994942676    -2.7612044690    -0.2651813405
Bq         1.1197422173    -2.8607980821     0.4039750782
Bq         1.3251731319    -2.7469768099    -0.3607751146
Bq         1.0940633530    -2.8750257412     0.4995688523
Bq         1.3508519962    -2.7327491509    -0.4563688887
Bq         1.2224576746    -2.8038874460     0.0215999818
Bq         1.1930877597    -2.7191324110     0.1309342955
Bq         1.2444454884    -2.6906770930    -0.0602532527
Bq         1.1674088954    -2.7333600701     0.2265280696
Bq         1.2701243527    -2.6764494339    -0.1558470268
Bq         1.1417300311    -2.7475877291     0.3221218437
Bq         1.2958032170    -2.6622217749    -0.2514408009
Bq         1.1160511668    -2.7618153881     0.4177156178
Bq         1.3214820813    -2.6479941159    -0.3470345750
Bq         1.0903723024    -2.7760430471     0.5133093919
Bq         1.3471609457    -2.6337664569    -0.4426283491
Bq         1.2187666241    -2.7049047520     0.0353405214
Bq         1.1893967092    -2.6201497170     0.1446748350
Bq         1.2407544378    -2.5916943989    -0.0465127132
Bq         1.1637178449    -2.6343773760     0.2402686091
Bq         1.2664333022    -2.5774667399    -0.1421064872
Bq         1.1380389806    -2.6486050350     0.3358623832
Bq         1.2921121665    -2.5632390809    -0.2377002613
Bq         1.1123601162    -2.6628326941     0.4314561573
Bq         1.3177910308    -2.5490114219    -0.3332940354
Bq         1.0866812519    -2.6770603531     0.5270499314
Bq         1.3434698951    -2.5347837628    -0.4288878095
Bq         1.2150755735    -2.6059220580     0.0490810609
Bq         1.1857056587    -2.5211670230     0.1584153746
Bq         1.2370633873    -2.4927117049    -0.0327721736
Bq         1.1600267943    -2.5353946820     0.2540091487
Bq         1.2627422516    -2.4784840459    -0.1283659477
Bq         1.1343479300    -2.5496223410     0.3496029228
Bq         1.2884211160    -2.4642563868    -0.2239597218
Bq         1.1086690657    -2.5638500000     0.4451966969
Bq         1.3140999803    -2.4500287278    -0.3195534959
Bq         1.0829902014    -2.5780776591     0.5407904710
Bq         1.3397788446    -2.4358010688    -0.4151472700
Bq         1.2113845230    -2.5069393639     0.0628216005
Bq         1.1820146081    -2.4221843289     0.1721559142
Bq         1.2333723368    -2.3937290109    -0.0190316340
Bq         1.1563357438    -2.4364119879     0.2677496882
Bq         1.2590512011    -2.3795013518    -0.1146254081
Bq         1.1306568795    -2.4506396470     0.3633434623
Bq         1.2847300654    -2.3652736928    -0.2102191822
Bq         1.1049780152    -2.4648673060     0.4589372364
Bq         1.3104089297    -2.3510460338    -0.3058129563
Bq         1.0792991508    -2.4790949650     0.5545310105
Bq         1.3360877941    -2.3368183748    -0.4014067304
Bq         1.2076934725    -2.4079566699     0.0765621401
Bq         1.1783235576    -2.3232016349     0.1858964537
Bq         1.2296812862    -2.2947463168    -0.0052910945
Bq         1.1526446933    -2.3374292939     0.2814902278
Bq         1.2553601506    -2.2805186578    -0.1008848686
Bq         1.1269658289    -2.3516569529     0.3770840019
Bq         1.2810390149    -2.2662909988    -0.1964786427
Bq         1.1012869646    -2.3658846120     0.4726777760
Bq         1.3067178792    -2.2520633397    -0.2920724168
Bq         1.0756081003    -2.3801122710     0.5682715501
Bq         1.3323967435    -2.2378356807    -0.3876661909
Bq         1.2040024219    -2.3089739759     0.0903026796
Bq         1.1746325071    -2.2242189408     0.1996369933
Bq         1.2259902357    -2.1957636228     0.0084494451
Bq         1.1489536427    -2.2384465999     0.2952307674
Bq         1.2516691000    -2.1815359638    -0.0871443290
Bq         1.1232747784    -2.2526742589     0.3908245415
Bq         1.2773479643    -2.1673083047    -0.1827381031
Bq         1.0975959141    -2.2669019179     0.4864183156
Bq         1.3030268287    -2.1530806457    -0.2783318772
Bq         1.0719170498    -2.2811295770     0.5820120896
Bq         1.3287056930    -2.1388529867    -0.3739256513
Bq         1.2003113714    -2.2099912818     0.1040432192
Bq         1.1709414565    -2.1252362468     0.2133775328
Bq         1.2222991852    -2.0967809288     0.0221899846
Bq         1.1452625922    -2.1394639058     0.3089713069
Bq         1.2479780495    -2.0825532697    -0.0734037895
Bq         1.1195837279    -2.1536915649     0.4045650810
Bq         1.2736569138    -2.0683256107    -0.1689975635
Bq         1.0939048636    -2.1679192239     0.5001588551
Bq         1.2993357781    -2.0540979517    -0.2645913376
Bq         1.0682259992    -2.1821468829     0.5957526292
Bq         1.3250146425    -2.0398702926    -0.3601851117
Bq         1.1966203208    -2.1110085878     0.1177837587
Bq         1.1672504060    -2.0262535528     0.2271180724
Bq         1.2186081346    -1.9977982347     0.0359305242
Bq         1.1415715417    -2.0404812118     0.3227118465
Bq         1.2442869990    -1.9835705757    -0.0596632499
Bq         1.1158926773    -2.0547088708     0.4183056206
Bq         1.2699658633    -1.9693429167    -0.1552570240
Bq         1.0902138130    -2.0689365299     0.5138993947
Bq         1.2956447276    -1.9551152576    -0.2508507981
Bq         1.0645349487    -2.0831641889     0.6094931688
Bq         1.3213235919    -1.9408875986    -0.3464445722
Bq         1.1929292703    -2.0120258937     0.1315242983
Bq         1.1635593555    -1.9272708587     0.2408586119
Bq         1.2149170841    -1.8988155407     0.0496710638
Bq         1.1378804911    -1.9414985178     0.3364523860
Bq         1.2405959484    -1.8845878817    -0.0459227103
Bq         1.1122016268    -1.9557261768     0.4320461601
Bq         1.2662748127    -1.8703602226    -0.1415164844
Bq         1.0865227625    -1.9699538358     0.5276399342
Bq         1.2919536771    -1.8561325636    -0.2371102585
Bq         1.0608438982    -1.9841814949     0.6232337083
Bq         1.3176325414    -1.8419049046    -0.3327040326
Bq         1.1892382198    -1.9130431997     0.1452648379
Bq         1.1598683049    -1.8282881647     0.2545991515
Bq         1.2112260336    -1.7998328466     0.0634116033
Bq         1.1341894406    -1.8425158237     0.3501929256
Bq         1.2369048979    -1.7856051876    -0.0321821708
Bq         1.1085105763    -1.8567434828     0.4457866997
Bq         1.2625837622    -1.7713775286    -0.1277759449
Bq         1.0828317119    -1.8709711418     0.5413804738
Bq         1.2882626265    -1.7571498696    -0.2233697190
Bq         1.0571528476    -1.8851988008     0.6369742479
Bq         1.3139414909    -1.7429222105    -0.3189634931
Bq         1.1855471692    -1.8140605057     0.1590053774
Bq         1.1561772544    -1.7293054707     0.2683396911
Bq         1.2075349830    -1.7008501526     0.0771521429
Bq         1.1304983901    -1.7435331297     0.3639334652
Bq         1.2332138473    -1.6866224936    -0.0184416312
Bq         1.1048195257    -1.7577607887     0.4595272393
Bq         1.2588927117    -1.6723948346    -0.1140354053
Bq         1.0791406614    -1.7719884478     0.5551210133
Bq         1.2845715760    -1.6581671755    -0.2096291794
Bq         1.0534617971    -1.7862161068     0.6507147874
Bq         1.3102504403    -1.6439395165    -0.3052229535
Bq         1.1818561187    -1.7150778116     0.1727459170
Bq         1.1524862038    -1.6303227766     0.2820802306
Bq         1.2038439325    -1.6018674586     0.0908926824
Bq         1.1268073395    -1.6445504357     0.3776740047
Bq         1.2295227968    -1.5876397995    -0.0047010917
Bq         1.1011284752    -1.6587780947     0.4732677788
Bq         1.2552016611    -1.5734121405    -0.1002948658
Bq         1.0754496109    -1.6730057537     0.5688615529
Bq         1.2808805255    -1.5591844815    -0.1958886398
Bq         1.0497707466    -1.6872334127     0.6644553270
Bq         1.3065593898    -1.5449568225    -0.2914824139
Bq         1.1781650682    -1.6160951176     0.1864864565
Bq         1.1487951533    -1.5313400826     0.2958207702
Bq         1.2001528820    -1.5028847645     0.1046332220

1
2
3
4
5
6
7
8
9
10
11
12
13
14
15
16
17
18
19
20
21
22
23
24
25
26
27
28
29
30
31
32
33
34
35
36
37
38
39
40
41
42
43
44
45
46
47
48
49
50
51
52
53
54
55
56
57
58
59
60
61
62
63
64
65
66
67
68
69
70
71
72
73
74
75
76
77
78
79
80
81
82
83
84
85
86
87
88
89
90
91
92
93
94
95
96
97
98
99
100
101
102
103
104
105
106
107
108
109
110
111
112
113
114
115
116
117
118
119
120
121
122
123
124
125
126
127
128
129
130
131
132
133
134
135
136
137
138
139
140
141
142
143
144
145
146
147
148
149
150
151
152
153
154
155
156
157
158
159
160
161
162
163
164
165
166
167
168
169
170
171
172
173
174
175
176
177
178
179
180
181
182
183
184
185
186
187
188
189
190
191
192
193
194
195
196
197
198
199
200
201
202
203
204
205
206
207
208
209
210
211
212
213
214
215
216
217
218
219
220
221
222
223
224
225
226
227
228
229
230
231
232
233
234
235
236

