%nproc=8
%mem=1000MB
# rb3lyp/6-311+g** NMR geom=connectivity

Title

0 1
C    -4.0500558   -0.5771862    0.8136712
H    -5.0263804   -1.0082727    1.0024760
C    -3.9381552    0.6617804    0.2400876
H    -4.8252424    1.2338890   -0.0111295
C    -2.6768410    1.2433246    0.0057578
C    -1.4974121    0.5051527    0.2848253
C    -1.6508332   -0.7338728    0.9404026
H    -0.7713646   -1.2730967    1.2633753
C    -2.8898548   -1.2624035    1.1994307
H    -2.9683706   -2.2124563    1.7152676
C    -2.5773185    2.5963696   -0.4192930
H    -3.4870728    3.1412239   -0.6474055
C    -1.3741895    3.2147896   -0.4364030
H    -1.2997315    4.2742019   -0.6578144
C    -0.1719488    2.4994090   -0.1734588
C    -0.2043917    1.1018437    0.0192689
C     1.0513491    3.2042560   -0.0676222
H     1.0427344    4.2819499   -0.1896997
C     2.1942091    2.5487446    0.2579577
H     3.1168527    3.0912848    0.4334727
C     2.2216473    1.1336562    0.2934990
C     1.0486931    0.3945528    0.0302412
C     3.4483363    0.4614633    0.5573939
H     4.3095794    1.0606054    0.8334846
C     3.5427346   -0.8855926    0.4749463
H     4.4731467   -1.3939704    0.7038822
C     2.4490052   -1.6474447   -0.0196319
C     1.2150704   -1.0057258   -0.3013573
C     0.2531113   -1.7434440   -1.0216591
H    -0.6541356   -1.2535051   -1.3462847
C     0.4494193   -3.0628597   -1.3413779
H    -0.3083162   -3.5944309   -1.9054060
C     1.6251726   -3.7207967   -0.9552541
H     1.7670048   -4.7687404   -1.1927019
C     2.6109872   -3.0144177   -0.3183050
H     3.5525612   -3.4902813   -0.0646367
Bq        -0.5695884597     2.8518437511     0.5845599520
Bq        -0.4827327414     2.8223628406    -0.0083877355
Bq        -0.5840644127     2.8567572362     0.6833845666
Bq        -0.4682567884     2.8174493555    -0.1072123501
Bq        -0.5985403658     2.8616707213     0.7822091811
Bq        -0.4537808353     2.8125358704    -0.2060369647
Bq        -0.5261606005     2.8371032959     0.2880861082
Bq        -0.5399244196     2.9418959963     0.3820491180
Bq        -0.5109725136     2.9320690261     0.1843998889
Bq        -0.5544003727     2.9468094814     0.4808737326
Bq        -0.4964965605     2.9271555411     0.0855752743
Bq        -0.5688763257     2.9517229665     0.5796983472
Bq        -0.4820206075     2.9222420560    -0.0132493403
Bq        -0.5833522788     2.9566364516     0.6785229618
Bq        -0.4675446544     2.9173285709    -0.1120739549
Bq        -0.5978282318     2.9615499366     0.7773475764
Bq        -0.4530687014     2.9124150858    -0.2108985695
Bq        -0.5254484666     2.9369825112     0.2832245034
Bq        -0.5392122857     3.0417752117     0.3771875133
Bq        -0.5102603796     3.0319482415     0.1795382841
Bq        -0.5536882387     3.0466886968     0.4760121279
Bq        -0.4957844266     3.0270347564     0.0807136695
Bq        -0.5681641918     3.0516021819     0.5748367424
Bq        -0.4813084735     3.0221212714    -0.0181109451
Bq        -0.5826401448     3.0565156669     0.6736613570
Bq        -0.4668325205     3.0172077863    -0.1169355597
Bq        -0.5971160979     3.0614291520     0.7724859716
Bq        -0.4523565674     3.0122943012    -0.2157601742
Bq        -0.5247363327     3.0368617266     0.2783628987
Bq        -0.5385001518     3.1416544271     0.3723259085
Bq        -0.5095482457     3.1318274569     0.1746766793
Bq        -0.5529761048     3.1465679121     0.4711505231
Bq        -0.4950722926     3.1269139718     0.0758520647
Bq        -0.5674520579     3.1514813972     0.5699751377
Bq        -0.4805963396     3.1220004867    -0.0229725498
Bq        -0.5819280109     3.1563948823     0.6687997523
Bq        -0.4661203865     3.1170870017    -0.1217971644
Bq        -0.5964039639     3.1613083674     0.7676243668
Bq        -0.4516444335     3.1121735166    -0.2206217790
Bq        -0.5240241987     3.1367409420     0.2735012939
Bq        -0.5377880178     3.2415336424     0.3674643037
Bq        -0.5088361117     3.2317066723     0.1698150746
Bq        -0.5522639709     3.2464471275     0.4662889183
Bq        -0.4943601587     3.2267931872     0.0709904600
Bq        -0.5667399239     3.2513606126     0.5651135329
Bq        -0.4798842056     3.2218797021    -0.0278341546
Bq        -0.5812158770     3.2562740977     0.6639381475
Bq        -0.4654082526     3.2169662170    -0.1266587692
Bq        -0.5956918300     3.2611875828     0.7627627621
Bq        -0.4509322996     3.2120527319    -0.2254833838
Bq        -0.5233120648     3.2366201574     0.2686396891
Bq        -0.5370758839     3.3414128578     0.3626026990
Bq        -0.5081239778     3.3315858877     0.1649534698
Bq        -0.5515518369     3.3463263429     0.4614273136
Bq        -0.4936480247     3.3266724026     0.0661288552
Bq        -0.5660277900     3.3512398280     0.5602519281
Bq        -0.4791720717     3.3217589175    -0.0326957594
Bq        -0.5805037430     3.3561533131     0.6590765427
Bq        -0.4646961187     3.3168454324    -0.1315203740
Bq        -0.5949796961     3.3610667981     0.7579011573
Bq        -0.4502201656     3.3119319473    -0.2303449885
Bq        -0.5225999308     3.3364993727     0.2637780844
Bq        -0.5363637499     3.4412920732     0.3577410942
Bq        -0.5074118439     3.4314651030     0.1600918650
Bq        -0.5508397030     3.4462055583     0.4565657088
Bq        -0.4929358908     3.4265516179     0.0612672504
Bq        -0.5653156560     3.4511190434     0.5553903234
Bq        -0.4784599378     3.4216381329    -0.0375573641
Bq        -0.5797916091     3.4560325284     0.6542149380
Bq        -0.4639839847     3.4167246478    -0.1363819787
Bq        -0.5942675621     3.4609460135     0.7530395525
Bq        -0.4495080317     3.4118111627    -0.2352065933
Bq        -0.5218877969     3.4363785881     0.2589164796
Bq        -0.5356516160     3.5411712886     0.3528794894
Bq        -0.5066997099     3.5313443184     0.1552302603
Bq        -0.5501275690     3.5460847737     0.4517041040
Bq        -0.4922237569     3.5264308333     0.0564056457
Bq        -0.5646035221     3.5509982587     0.5505287186
Bq        -0.4777478038     3.5215173482    -0.0424189689
Bq        -0.5790794751     3.5559117438     0.6493533332
Bq        -0.4632718508     3.5166038632    -0.1412435835
Bq        -0.5935554282     3.5608252289     0.7481779478
Bq        -0.4487958977     3.5116903781    -0.2400681981
Bq        -0.5211756630     3.5362578035     0.2540548749
Bq        -0.5349394821     3.6410505039     0.3480178847
Bq        -0.5059875760     3.6312235338     0.1503686555
Bq        -0.5494154351     3.6459639890     0.4468424993
Bq        -0.4915116229     3.6263100487     0.0515440409
Bq        -0.5638913881     3.6508774741     0.5456671138
Bq        -0.4770356699     3.6213965636    -0.0472805737
Bq        -0.5783673412     3.6557909592     0.6444917284
Bq        -0.4625597168     3.6164830785    -0.1461051883
Bq        -0.5928432942     3.6607044443     0.7433163430
Bq        -0.4480837638     3.6115695935    -0.2449298028
Bq        -0.5204635290     3.6361370189     0.2491932701
Bq        -0.5342273481     3.7409297193     0.3431562799
Bq        -0.5052754420     3.7311027492     0.1455070507
Bq        -0.5487033012     3.7458432044     0.4419808945
Bq        -0.4907994890     3.7261892641     0.0466824361
Bq        -0.5631792542     3.7507566895     0.5408055091
Bq        -0.4763235359     3.7212757790    -0.0521421784
Bq        -0.5776552072     3.7556701746     0.6396301237
Bq        -0.4618475829     3.7163622939    -0.1509667930
Bq        -0.5921311603     3.7605836597     0.7384547382
Bq        -0.4473716298     3.7114488088    -0.2497914076
Bq        -0.5197513951     3.7360162342     0.2443316653
Bq        -0.5335152142     3.8408089347     0.3382946751
Bq        -0.5045633081     3.8309819645     0.1406454460
Bq        -0.5479911672     3.8457224198     0.4371192897
Bq        -0.4900873550     3.8260684795     0.0418208314
Bq        -0.5624671203     3.8506359049     0.5359439043
Bq        -0.4756114020     3.8211549944    -0.0570037832
Bq        -0.5769430733     3.8555493900     0.6347685189
Bq        -0.4611354490     3.8162415093    -0.1558283978
Bq        -0.5914190263     3.8604628750     0.7335931335
Bq        -0.4466594959     3.8113280242    -0.2546530124
Bq        -0.5190392611     3.8358954496     0.2394700606
Bq        -0.5328030802     3.9406881501     0.3334330704
Bq        -0.5038511741     3.9308611799     0.1357838412
Bq        -0.5472790333     3.9456016352     0.4322576850
Bq        -0.4893752211     3.9259476948     0.0369592266
Bq        -0.5617549863     3.9505151202     0.5310822995
Bq        -0.4748992681     3.9210342098    -0.0618653880
Bq        -0.5762309394     3.9554286053     0.6299069141
Bq        -0.4604233150     3.9161207247    -0.1606900026
Bq        -0.5907068924     3.9603420904     0.7287315287
Bq        -0.4459473620     3.9112072396    -0.2595146171
Bq        -0.5183271272     3.9357746650     0.2346084558
Bq        -0.5320909463     4.0405673655     0.3285714656
Bq        -0.5031390402     4.0307403953     0.1309222364
Bq        -0.5465668993     4.0454808505     0.4273960802
Bq        -0.4886630872     4.0258269102     0.0320976218
Bq        -0.5610428524     4.0503943356     0.5262206948
Bq        -0.4741871341     4.0209134251    -0.0667269927
Bq        -0.5755188054     4.0553078207     0.6250453094
Bq        -0.4597111811     4.0159999400    -0.1655516073
Bq        -0.5899947585     4.0602213058     0.7238699239
Bq        -0.4452352280     4.0110864550    -0.2643762219
Bq        -0.5176149932     4.0356538804     0.2297468510
Bq        -0.5313788123     4.1404465808     0.3237098608
Bq        -0.5024269063     4.1306196107     0.1260606317
Bq        -0.5458547654     4.1453600659     0.4225344754
Bq        -0.4879509532     4.1257061256     0.0272360171
Bq        -0.5603307184     4.1502735510     0.5213590900
Bq        -0.4734750002     4.1207926405    -0.0715885975
Bq        -0.5748066715     4.1551870361     0.6201837046
Bq        -0.4589990471     4.1158791554    -0.1704132121
Bq        -0.5892826245     4.1601005212     0.7190083192
Bq        -0.4445230941     4.1109656703    -0.2692378267
Bq        -0.5169028593     4.1355330958     0.2248852463
Bq        -0.5306666784     4.2403257962     0.3188482561
Bq        -0.5017147723     4.2304988260     0.1211990269
Bq        -0.5451426314     4.2452392813     0.4176728707
Bq        -0.4872388193     4.2255853410     0.0223744123
Bq        -0.5596185845     4.2501527664     0.5164974852
Bq        -0.4727628662     4.2206718559    -0.0764502023
Bq        -0.5740945375     4.2550662515     0.6153220998
Bq        -0.4582869132     4.2157583708    -0.1752748169
Bq        -0.5885704906     4.2599797365     0.7141467144
Bq        -0.4438109601     4.2108448857    -0.2740994314
Bq        -0.5161907254     4.2354123111     0.2200236415
Bq        -0.5299545445     4.3402050116     0.3139866513
Bq        -0.5010026384     4.3303780414     0.1163374221
Bq        -0.5444304975     4.3451184967     0.4128112659
Bq        -0.4865266853     4.3254645563     0.0175128075
Bq        -0.5589064506     4.3500319818     0.5116358805
Bq        -0.4720507323     4.3205510713    -0.0813118070
Bq        -0.5733824036     4.3549454668     0.6104604951
Bq        -0.4575747792     4.3156375862    -0.1801364216
Bq        -0.5878583566     4.3598589519     0.7092851096
Bq        -0.4430988262     4.3107241011    -0.2789610362
Bq        -0.5154785914     4.3352915265     0.2151620367
Bq        -0.4666171177    -0.6537557573     0.5715603485
Bq        -0.4376652116    -0.6635827274     0.3739111194
Bq        -0.4810930707    -0.6488422722     0.6703849631
Bq        -0.4231892585    -0.6684962125     0.2750865048
Bq        -0.4955690238    -0.6439287871     0.7692095777
Bq        -0.4087133055    -0.6734096976     0.1762618902
Bq        -0.5100449768    -0.6390153020     0.8680341923
Bq        -0.3942373525    -0.6783231827     0.0774372756
Bq        -0.5245209299    -0.6341018169     0.9668588069
Bq        -0.3797613994    -0.6832366678    -0.0213873390
Bq        -0.4521411646    -0.6586692423     0.4727357340
Bq        -0.4659049837    -0.5538765419     0.5666987438
Bq        -0.4369530776    -0.5637035121     0.3690495146
Bq        -0.4803809368    -0.5489630568     0.6655233584
Bq        -0.4224771246    -0.5686169971     0.2702249000
Bq        -0.4948568898    -0.5440495717     0.7643479729
Bq        -0.4080011716    -0.5735304822     0.1714002854
Bq        -0.5093328429    -0.5391360866     0.8631725875
Bq        -0.3935252185    -0.5784439673     0.0725756709
Bq        -0.5238087959    -0.5342226016     0.9619972021
Bq        -0.3790492655    -0.5833574524    -0.0262489437
Bq        -0.4514290307    -0.5587900270     0.4678741292
Bq        -0.4651928498    -0.4539973265     0.5618371390
Bq        -0.4362409437    -0.4638242967     0.3641879098
Bq        -0.4796688028    -0.4490838414     0.6606617536
Bq        -0.4217649907    -0.4687377818     0.2653632953
Bq        -0.4941447559    -0.4441703563     0.7594863682
Bq        -0.4072890376    -0.4736512668     0.1665386807

1
2
3
4
5
6
7
8
9
10
11
12
13
14
15
16
17
18
19
20
21
22
23
24
25
26
27
28
29
30
31
32
33
34
35
36
37
38
39
40
41
42
43
44
45
46
47
48
49
50
51
52
53
54
55
56
57
58
59
60
61
62
63
64
65
66
67
68
69
70
71
72
73
74
75
76
77
78
79
80
81
82
83
84
85
86
87
88
89
90
91
92
93
94
95
96
97
98
99
100
101
102
103
104
105
106
107
108
109
110
111
112
113
114
115
116
117
118
119
120
121
122
123
124
125
126
127
128
129
130
131
132
133
134
135
136
137
138
139
140
141
142
143
144
145
146
147
148
149
150
151
152
153
154
155
156
157
158
159
160
161
162
163
164
165
166
167
168
169
170
171
172
173
174
175
176
177
178
179
180
181
182
183
184
185
186
187
188
189
190
191
192
193
194
195
196
197
198
199
200
201
202
203
204
205
206
207
208
209
210
211
212
213
214
215
216
217
218
219
220
221
222
223
224
225
226
227
228
229
230
231
232
233
234
235
236

