%nproc=8
%mem=1000MB
# rb3lyp/6-311+g** NMR geom=connectivity

Title

0 1
C    -4.0500558   -0.5771862    0.8136712
H    -5.0263804   -1.0082727    1.0024760
C    -3.9381552    0.6617804    0.2400876
H    -4.8252424    1.2338890   -0.0111295
C    -2.6768410    1.2433246    0.0057578
C    -1.4974121    0.5051527    0.2848253
C    -1.6508332   -0.7338728    0.9404026
H    -0.7713646   -1.2730967    1.2633753
C    -2.8898548   -1.2624035    1.1994307
H    -2.9683706   -2.2124563    1.7152676
C    -2.5773185    2.5963696   -0.4192930
H    -3.4870728    3.1412239   -0.6474055
C    -1.3741895    3.2147896   -0.4364030
H    -1.2997315    4.2742019   -0.6578144
C    -0.1719488    2.4994090   -0.1734588
C    -0.2043917    1.1018437    0.0192689
C     1.0513491    3.2042560   -0.0676222
H     1.0427344    4.2819499   -0.1896997
C     2.1942091    2.5487446    0.2579577
H     3.1168527    3.0912848    0.4334727
C     2.2216473    1.1336562    0.2934990
C     1.0486931    0.3945528    0.0302412
C     3.4483363    0.4614633    0.5573939
H     4.3095794    1.0606054    0.8334846
C     3.5427346   -0.8855926    0.4749463
H     4.4731467   -1.3939704    0.7038822
C     2.4490052   -1.6474447   -0.0196319
C     1.2150704   -1.0057258   -0.3013573
C     0.2531113   -1.7434440   -1.0216591
H    -0.6541356   -1.2535051   -1.3462847
C     0.4494193   -3.0628597   -1.3413779
H    -0.3083162   -3.5944309   -1.9054060
C     1.6251726   -3.7207967   -0.9552541
H     1.7670048   -4.7687404   -1.1927019
C     2.6109872   -3.0144177   -0.3183050
H     3.5525612   -3.4902813   -0.0646367
Bq         0.7997681788    -1.5514758911    -0.4727357846
Bq         0.5207358323    -1.7377854489     0.1416172884
Bq         0.8396299426    -1.5248602400    -0.5605005093
Bq         0.4808740685    -1.7644011000     0.2293820131
Bq         0.8794917064    -1.4982445889    -0.6482652340
Bq         0.6801828875    -1.6313228445    -0.2094416105
Bq         0.6293146503    -1.5615455129    -0.0974436353
Bq         0.7090381779    -1.5083142106    -0.2729730847
Bq         0.5894528865    -1.5881611640    -0.0096789106
Bq         0.7488999417    -1.4816985595    -0.3607378094
Bq         0.5495911227    -1.6147768151     0.0780858141
Bq         0.7887617055    -1.4550829084    -0.4485025341
Bq         0.5097293590    -1.6413924662     0.1658505389
Bq         0.8286234693    -1.4284672573    -0.5362672588
Bq         0.4698675952    -1.6680081173     0.2536152636
Bq         0.8684852330    -1.4018516062    -0.6240319836
Bq         0.6691764141    -1.5349298617    -0.1852083600
Bq         0.6183081769    -1.4651525301    -0.0732103848
Bq         0.6980317045    -1.4119212279    -0.2487398343
Bq         0.5784464132    -1.4917681812     0.0145543399
Bq         0.7378934683    -1.3853055768    -0.3365045590
Bq         0.5385846494    -1.5183838324     0.1023190646
Bq         0.7777552321    -1.3586899257    -0.4242692837
Bq         0.4987228856    -1.5449994835     0.1900837893
Bq         0.8176169959    -1.3320742746    -0.5120340084
Bq         0.4588611218    -1.5716151346     0.2778485140
Bq         0.8574787597    -1.3054586235    -0.5997987331
Bq         0.6581699407    -1.4385368790    -0.1609751095
Bq         0.6073017036    -1.3687595474    -0.0489771344
Bq         0.6870252312    -1.3155282452    -0.2245065838
Bq         0.5674399398    -1.3953751985     0.0387875903
Bq         0.7268869949    -1.2889125941    -0.3122713085
Bq         0.5275781760    -1.4219908496     0.1265523151
Bq         0.7667487587    -1.2622969430    -0.4000360332
Bq         0.4877164122    -1.4486065008     0.2143170398
Bq         0.8066105225    -1.2356812919    -0.4878007579
Bq         0.4478546484    -1.4752221519     0.3020817645
Bq         0.8464722863    -1.2090656408    -0.5755654826
Bq         0.6471634674    -1.3421438963    -0.1367418591
Bq         0.5962952302    -1.2723665647    -0.0247438839
Bq         0.6760187578    -1.2191352625    -0.2002733333
Bq         0.5564334664    -1.2989822158     0.0630208408
Bq         0.7158805216    -1.1925196114    -0.2880380580
Bq         0.5165717026    -1.3255978669     0.1507855655
Bq         0.7557422854    -1.1659039603    -0.3758027828
Bq         0.4767099388    -1.3522135180     0.2385502902
Bq         0.7956040491    -1.1392883092    -0.4635675075
Bq         0.4368481751    -1.3788291691     0.3263150149
Bq         0.8354658129    -1.1126726581    -0.5513322322
Bq         0.6361569940    -1.2457509136    -0.1125086086
Bq         0.5852887568    -1.1759735820    -0.0005106335
Bq         0.6650122844    -1.1227422798    -0.1760400829
Bq         0.5454269930    -1.2025892331     0.0872540913
Bq         0.7048740482    -1.0961266287    -0.2638048076
Bq         0.5055652293    -1.2292048842     0.1750188160
Bq         0.7447358120    -1.0695109776    -0.3515695323
Bq         0.4657034655    -1.2558205353     0.2627835407
Bq         0.7845975758    -1.0428953265    -0.4393342570
Bq         0.4258417017    -1.2824361864     0.3505482654
Bq         0.8244593396    -1.0162796754    -0.5270989817
Bq         0.6251505206    -1.1493579309    -0.0882753582
Bq         0.5742822835    -1.0795805993     0.0237226170
Bq         0.6540058110    -1.0263492971    -0.1518068324
Bq         0.5344205197    -1.1061962504     0.1114873417
Bq         0.6938675748    -0.9997336460    -0.2395715571
Bq         0.4945587559    -1.1328119015     0.1992520664
Bq         0.7337293386    -0.9731179949    -0.3273362818
Bq         0.4546969921    -1.1594275526     0.2870167911
Bq         0.7735911024    -0.9465023438    -0.4151010066
Bq         0.4148352283    -1.1860432037     0.3747815159
Bq         0.8134528662    -0.9198866927    -0.5028657313
Bq         0.6141440472    -1.0529649482    -0.0640421077
Bq         0.5632758101    -0.9831876166     0.0479558675
Bq         0.6429993377    -0.9299563144    -0.1275735820
Bq         0.5234140463    -1.0098032677     0.1357205922
Bq         0.6828611014    -0.9033406633    -0.2153383067
Bq         0.4835522825    -1.0364189188     0.2234853169
Bq         0.7227228652    -0.8767250122    -0.3031030314
Bq         0.4436905187    -1.0630345699     0.3112500416
Bq         0.7625846290    -0.8501093610    -0.3908677561
Bq         0.4038287549    -1.0896502210     0.3990147663
Bq         0.8024463928    -0.8234937099    -0.4786324808
Bq         0.6031375739    -0.9565719655    -0.0398088573
Bq         0.5522693367    -0.8867946339     0.0721891179
Bq         0.6319928643    -0.8335633317    -0.1033403315
Bq         0.5124075729    -0.9134102850     0.1599538426
Bq         0.6718546281    -0.8069476805    -0.1911050562
Bq         0.4725458091    -0.9400259361     0.2477185673
Bq         0.7117163919    -0.7803320294    -0.2788697809
Bq         0.4326840454    -0.9666415872     0.3354832921
Bq         0.7515781557    -0.7537163783    -0.3666345056
Bq         0.3928222816    -0.9932572383     0.4232480168
Bq         0.7914399194    -0.7271007272    -0.4543992304
Bq         0.5921311005    -0.8601789828    -0.0155756068
Bq         0.5412628633    -0.7904016512     0.0964223684
Bq         0.6209863909    -0.7371703489    -0.0791070810
Bq         0.5014010996    -0.8170173023     0.1841870931
Bq         0.6608481547    -0.7105546978    -0.1668718058
Bq         0.4615393358    -0.8436329534     0.2719518178
Bq         0.7007099185    -0.6839390467    -0.2546365305
Bq         0.4216775720    -0.8702486045     0.3597165425
Bq         0.7405716823    -0.6573233956    -0.3424012552
Bq         0.3818158082    -0.8968642556     0.4474812672
Bq         0.7804334461    -0.6307077445    -0.4301659799
Bq         0.5811246271    -0.7637860000     0.0086576437
Bq         0.5302563900    -0.6940086684     0.1206556188
Bq         0.6099799175    -0.6407773662    -0.0548738306
Bq         0.4903946262    -0.7206243196     0.2084203435
Bq         0.6498416813    -0.6141617151    -0.1426385553
Bq         0.4505328624    -0.7472399707     0.2961850683
Bq         0.6897034451    -0.5875460640    -0.2304032800
Bq         0.4106710986    -0.7738556218     0.3839497930
Bq         0.7295652089    -0.5609304129    -0.3181680047
Bq         0.3708093348    -0.8004712729     0.4717145177
Bq         0.7694269727    -0.5343147618    -0.4059327294
Bq         0.5701181538    -0.6673930173     0.0328908941
Bq         0.5192499166    -0.5976156857     0.1448888693
Bq         0.5989734442    -0.5443843835    -0.0306405801
Bq         0.4793881528    -0.6242313368     0.2326535940
Bq         0.6388352080    -0.5177687324    -0.1184053048
Bq         0.4395263890    -0.6508469879     0.3204183187
Bq         0.6786969717    -0.4911530813    -0.2061700296
Bq         0.3996646252    -0.6774626391     0.4081830434
Bq         0.7185587355    -0.4645374302    -0.2939347543
Bq         0.3598028614    -0.7040782902     0.4959477681
Bq         0.7584204993    -0.4379217791    -0.3816994790
Bq         0.5591116804    -0.5710000346     0.0571241446
Bq         0.5082434432    -0.5012227030     0.1691221198
Bq         0.5879669708    -0.4479914008    -0.0064073297
Bq         0.4683816794    -0.5278383541     0.2568868445
Bq         0.6278287346    -0.4213757497    -0.0941720544
Bq         0.4285199157    -0.5544540052     0.3446515692
Bq         0.6676904984    -0.3947600986    -0.1819367791
Bq         0.3886581519    -0.5810696563     0.4324162939
Bq         0.7075522622    -0.3681444475    -0.2697015038
Bq         0.3487963881    -0.6076853074     0.5201810186
Bq         0.7474140260    -0.3415287964    -0.3574662285
Bq         0.5481052070    -0.4746070519     0.0813573950
Bq         0.4972369699    -0.4048297203     0.1933553702
Bq         0.5769604974    -0.3515984181     0.0178259208
Bq         0.4573752061    -0.4314453714     0.2811200949
Bq         0.6168222612    -0.3249827670    -0.0699388039
Bq         0.4175134423    -0.4580610225     0.3688848196
Bq         0.6566840250    -0.2983671159    -0.1577035286
Bq         0.3776516785    -0.4846766736     0.4566495443
Bq         0.6965457888    -0.2717514648    -0.2454682534
Bq         0.3377899147    -0.5112923247     0.5444142691
Bq         0.7364075526    -0.2451358137    -0.3332329781
Bq         0.5370987336    -0.3782140692     0.1055906455
Bq         0.4862304965    -0.3084367376     0.2175886207
Bq         0.5659540241    -0.2552054354     0.0420591712
Bq         0.4463687327    -0.3350523887     0.3053533454
Bq         0.6058157878    -0.2285897843    -0.0457055535
Bq         0.4065069689    -0.3616680398     0.3931180701
Bq         0.6456775516    -0.2019741332    -0.1334702782
Bq         0.3666452051    -0.3882836909     0.4808827948
Bq         0.6855393154    -0.1753584821    -0.2212350029
Bq         0.3267834413    -0.4148993420     0.5686475195
Bq         0.7254010792    -0.1487428310    -0.3089997276
Bq         0.5260922603    -0.2818210865     0.1298238960
Bq         0.4752240231    -0.2120437549     0.2418218711
Bq         0.5549475507    -0.1588124527     0.0662924217
Bq         0.4353622593    -0.2386594060     0.3295865958
Bq         0.5948093145    -0.1321968016    -0.0214723030
Bq         0.3955004955    -0.2652750571     0.4173513206
Bq         0.6346710783    -0.1055811505    -0.1092370277
Bq         0.3556387317    -0.2918907082     0.5051160453
Bq         0.6745328420    -0.0789654993    -0.1970017524
Bq         0.3157769680    -0.3185063593     0.5928807700
Bq         0.7143946058    -0.0523498482    -0.2847664771
Bq         0.5150857869    -0.1854281038     0.1540571464
Bq         0.4642175497    -0.1156507722     0.2660551216
Bq         0.5439410773    -0.0624194700     0.0905256722
Bq         0.4243557860    -0.1422664233     0.3538198463
Bq         0.5838028411    -0.0358038189     0.0027609474
Bq         0.3844940222    -0.1688820744     0.4415845710
Bq         0.6236646049    -0.0091881677    -0.0850037773
Bq         0.3446322584    -0.1954977255     0.5293492957
Bq         0.6635263687     0.0174274834    -0.1727685020
Bq         0.3047704946    -0.2221133766     0.6171140204
Bq         0.7033881325     0.0440431345    -0.2605332267
Bq         0.5040793135    -0.0890351211     0.1782903969
Bq         1.1055900917    -4.9352999078    -0.9042540137
Bq         1.1853136192    -4.8820686056    -1.0797834631
Bq         1.0657283279    -4.9619155589    -0.8164892890
Bq         1.2251753830    -4.8554529545    -1.1675481878
Bq         1.0258665641    -4.9885312100    -0.7287245643
Bq         1.2650371468    -4.8288373034    -1.2553129125
Bq         0.9860048003    -5.0151468611    -0.6409598395
Bq         1.3048989106    -4.8022216522    -1.3430776373
Bq         0.9461430365    -5.0417625122    -0.5531951148
Bq         1.3447606744    -4.7756060011    -1.4308423620
Bq         1.1454518554    -4.9086842567    -0.9920187384
Bq         1.0945836183    -4.8389069251    -0.8800207632
Bq         1.1743071459    -4.7856756229    -1.0555502127
Bq         1.0547218545    -4.8655225762    -0.7922560385
Bq         1.2141689096    -4.7590599717    -1.1433149374
Bq         1.0148600907    -4.8921382273    -0.7044913138
Bq         1.2540306734    -4.7324443206    -1.2310796621
Bq         0.9749983269    -4.9187538784    -0.6167265891

1
2
3
4
5
6
7
8
9
10
11
12
13
14
15
16
17
18
19
20
21
22
23
24
25
26
27
28
29
30
31
32
33
34
35
36
37
38
39
40
41
42
43
44
45
46
47
48
49
50
51
52
53
54
55
56
57
58
59
60
61
62
63
64
65
66
67
68
69
70
71
72
73
74
75
76
77
78
79
80
81
82
83
84
85
86
87
88
89
90
91
92
93
94
95
96
97
98
99
100
101
102
103
104
105
106
107
108
109
110
111
112
113
114
115
116
117
118
119
120
121
122
123
124
125
126
127
128
129
130
131
132
133
134
135
136
137
138
139
140
141
142
143
144
145
146
147
148
149
150
151
152
153
154
155
156
157
158
159
160
161
162
163
164
165
166
167
168
169
170
171
172
173
174
175
176
177
178
179
180
181
182
183
184
185
186
187
188
189
190
191
192
193
194
195
196
197
198
199
200
201
202
203
204
205
206
207
208
209
210
211
212
213
214
215
216
217
218
219
220
221
222
223
224
225
226
227
228
229
230
231
232
233
234
235
236

