%nproc=8
%mem=1000MB
# rb3lyp/6-311+g** NMR geom=connectivity

Title

0 1
C    -4.0500558   -0.5771862    0.8136712
H    -5.0263804   -1.0082727    1.0024760
C    -3.9381552    0.6617804    0.2400876
H    -4.8252424    1.2338890   -0.0111295
C    -2.6768410    1.2433246    0.0057578
C    -1.4974121    0.5051527    0.2848253
C    -1.6508332   -0.7338728    0.9404026
H    -0.7713646   -1.2730967    1.2633753
C    -2.8898548   -1.2624035    1.1994307
H    -2.9683706   -2.2124563    1.7152676
C    -2.5773185    2.5963696   -0.4192930
H    -3.4870728    3.1412239   -0.6474055
C    -1.3741895    3.2147896   -0.4364030
H    -1.2997315    4.2742019   -0.6578144
C    -0.1719488    2.4994090   -0.1734588
C    -0.2043917    1.1018437    0.0192689
C     1.0513491    3.2042560   -0.0676222
H     1.0427344    4.2819499   -0.1896997
C     2.1942091    2.5487446    0.2579577
H     3.1168527    3.0912848    0.4334727
C     2.2216473    1.1336562    0.2934990
C     1.0486931    0.3945528    0.0302412
C     3.4483363    0.4614633    0.5573939
H     4.3095794    1.0606054    0.8334846
C     3.5427346   -0.8855926    0.4749463
H     4.4731467   -1.3939704    0.7038822
C     2.4490052   -1.6474447   -0.0196319
C     1.2150704   -1.0057258   -0.3013573
C     0.2531113   -1.7434440   -1.0216591
H    -0.6541356   -1.2535051   -1.3462847
C     0.4494193   -3.0628597   -1.3413779
H    -0.3083162   -3.5944309   -1.9054060
C     1.6251726   -3.7207967   -0.9552541
H     1.7670048   -4.7687404   -1.1927019
C     2.6109872   -3.0144177   -0.3183050
H     3.5525612   -3.4902813   -0.0646367
Bq         2.9566636566    -0.5835852002     0.5040806020
Bq         2.7769116064    -0.6831788134     1.1732370207
Bq         2.9823425209    -0.5693575411     0.4084868279
Bq         2.7512327420    -0.6974064724     1.2688307948
Bq         3.0080213853    -0.5551298821     0.3128930538
Bq         2.8796270637    -0.6262681772     0.7908619243
Bq         2.8502571488    -0.5415131422     0.9001962380
Bq         2.9016148774    -0.5130578242     0.7090086898
Bq         2.8245782845    -0.5557408013     0.9957900121
Bq         2.9272937418    -0.4988301652     0.6134149157
Bq         2.7988994201    -0.5699684603     1.0913837862
Bq         2.9529726061    -0.4846025061     0.5178211416
Bq         2.7732205558    -0.5841961193     1.1869775603
Bq         2.9786514704    -0.4703748471     0.4222273675
Bq         2.7475416915    -0.5984237784     1.2825713344
Bq         3.0043303347    -0.4561471881     0.3266335934
Bq         2.8759360131    -0.5272854832     0.8046024639
Bq         2.8465660983    -0.4425304482     0.9139367775
Bq         2.8979238269    -0.4140751301     0.7227492293
Bq         2.8208872339    -0.4567581072     1.0095305516
Bq         2.9236026912    -0.3998474711     0.6271554552
Bq         2.7952083696    -0.4709857663     1.1051243257
Bq         2.9492815555    -0.3856198121     0.5315616812
Bq         2.7695295053    -0.4852134253     1.2007180998
Bq         2.9749604199    -0.3713921531     0.4359679071
Bq         2.7438506410    -0.4994410843     1.2963118739
Bq         3.0006392842    -0.3571644940     0.3403741330
Bq         2.8722449626    -0.4283027892     0.8183430034
Bq         2.8428750477    -0.3435477542     0.9276773171
Bq         2.8942327764    -0.3150924361     0.7364897689
Bq         2.8171961834    -0.3577754132     1.0232710912
Bq         2.9199116407    -0.3008647771     0.6408959948
Bq         2.7915173191    -0.3720030722     1.1188648653
Bq         2.9455905050    -0.2866371181     0.5453022207
Bq         2.7658384548    -0.3862307313     1.2144586394
Bq         2.9712693693    -0.2724094590     0.4497084466
Bq         2.7401595904    -0.4004583903     1.3100524135
Bq         2.9969482337    -0.2581818000     0.3541146725
Bq         2.8685539120    -0.3293200951     0.8320835430
Bq         2.8391839972    -0.2445650601     0.9414178567
Bq         2.8905417258    -0.2161097421     0.7502303085
Bq         2.8135051329    -0.2587927192     1.0370116307
Bq         2.9162205902    -0.2018820830     0.6546365344
Bq         2.7878262685    -0.2730203782     1.1326054048
Bq         2.9418994545    -0.1876544240     0.5590427603
Bq         2.7621474042    -0.2872480372     1.2281991789
Bq         2.9675783188    -0.1734267650     0.4634489862
Bq         2.7364685399    -0.3014756962     1.3237929530
Bq         2.9932571831    -0.1591991060     0.3678552121
Bq         2.8648628615    -0.2303374011     0.8458240826
Bq         2.8354929467    -0.1455823661     0.9551583962
Bq         2.8868506753    -0.1171270480     0.7639708480
Bq         2.8098140823    -0.1598100251     1.0507521703
Bq         2.9125295396    -0.1028993890     0.6683770739
Bq         2.7841352180    -0.1740376842     1.1463459444
Bq         2.9382084039    -0.0886717300     0.5727832998
Bq         2.7584563537    -0.1882653432     1.2419397185
Bq         2.9638872683    -0.0744440710     0.4771895257
Bq         2.7327774894    -0.2024930022     1.3375334926
Bq         2.9895661326    -0.0602164119     0.3815957516
Bq         2.8611718110    -0.1313547071     0.8595646221
Bq         2.8318018961    -0.0465996721     0.9688989358
Bq         2.8831596248    -0.0181443540     0.7777113876
Bq         2.8061230318    -0.0608273311     1.0644927099
Bq         2.9088384891    -0.0039166950     0.6821176135
Bq         2.7804441675    -0.0750549901     1.1600864840
Bq         2.9345173534     0.0103109641     0.5865238394
Bq         2.7547653031    -0.0892826491     1.2556802581
Bq         2.9601962177     0.0245386231     0.4909300653
Bq         2.7290864388    -0.1035103082     1.3512740321
Bq         2.9858750821     0.0387662821     0.3953362912
Bq         2.8574807604    -0.0323720130     0.8733051617
Bq         2.8281108456     0.0523830220     0.9826394753
Bq         2.8794685742     0.0808383400     0.7914519271
Bq         2.8024319813     0.0381553629     1.0782332494
Bq         2.9051474385     0.0950659991     0.6958581530
Bq         2.7767531169     0.0239277039     1.1738270235
Bq         2.9308263029     0.1092936581     0.6002643789
Bq         2.7510742526     0.0097000449     1.2694207976
Bq         2.9565051672     0.1235213171     0.5046706049
Bq         2.7253953883    -0.0045276141     1.3650145717
Bq         2.9821840315     0.1377489761     0.4090768308
Bq         2.8537897099     0.0666106810     0.8870457012
Bq         2.8244197950     0.1513657160     0.9963800149
Bq         2.8757775237     0.1798210341     0.8051924667
Bq         2.7987409307     0.1371380570     1.0919737890
Bq         2.9014563880     0.1940486931     0.7095986926
Bq         2.7730620664     0.1229103980     1.1875675631
Bq         2.9271352523     0.2082763521     0.6140049185
Bq         2.7473832021     0.1086827389     1.2831613372
Bq         2.9528141167     0.2225040112     0.5184111444
Bq         2.7217043378     0.0944550799     1.3787551113
Bq         2.9784929810     0.2367316702     0.4228173703
Bq         2.8500986594     0.1655933750     0.9007862408
Bq         2.8207287445     0.2503484100     1.0101205544
Bq         2.8720864732     0.2788037281     0.8189330063
Bq         2.7950498802     0.2361207510     1.1057143285
Bq         2.8977653375     0.2930313871     0.7233392322
Bq         2.7693710159     0.2218930920     1.2013081026
Bq         2.9234442018     0.3072590462     0.6277454581
Bq         2.7436921515     0.2076654330     1.2969018767
Bq         2.9491230661     0.3214867052     0.5321516840
Bq         2.7180132872     0.1934377739     1.3924956508
Bq         2.9748019304     0.3357143642     0.4365579099
Bq         2.8464076088     0.2645760691     0.9145267804
Bq         2.8170376940     0.3493311041     1.0238610940
Bq         2.8683954226     0.3777864221     0.8326735458
Bq         2.7913588297     0.3351034451     1.1194548681
Bq         2.8940742869     0.3920140812     0.7370797717
Bq         2.7656799653     0.3208757860     1.2150486422
Bq         2.9197531513     0.4062417402     0.6414859976
Bq         2.7400011010     0.3066481270     1.3106424163
Bq         2.9454320156     0.4204693992     0.5458922235
Bq         2.7143222367     0.2924204680     1.4062361904
Bq         2.9711108799     0.4346970583     0.4502984494
Bq         2.8427165583     0.3635587631     0.9282673199
Bq         2.8133466434     0.4483137981     1.0376016336
Bq         2.8647043721     0.4767691162     0.8464140854
Bq         2.7876677791     0.4340861391     1.1331954077
Bq         2.8903832364     0.4909967752     0.7508203113
Bq         2.7619889148     0.4198584801     1.2287891818
Bq         2.9160621007     0.5052244342     0.6552265372
Bq         2.7363100505     0.4056308210     1.3243829558
Bq         2.9417409651     0.5194520933     0.5596327631
Bq         2.7106311862     0.3914031620     1.4199767299
Bq         2.9674198294     0.5336797523     0.4640389890
Bq         2.8390255078     0.4625414571     0.9420078595
Bq         2.8096555929     0.5472964922     1.0513421731
Bq         2.8610133216     0.5757518102     0.8601546249
Bq         2.7839767286     0.5330688331     1.1469359472
Bq         2.8866921859     0.5899794692     0.7645608508
Bq         2.7582978643     0.5188411741     1.2425297213
Bq         2.9123710502     0.6042071283     0.6689670767
Bq         2.7326189999     0.5046135151     1.3381234954
Bq         2.9380499145     0.6184347873     0.5733733026
Bq         2.7069401356     0.4903858560     1.4337172695
Bq         2.9637287788     0.6326624463     0.4777795286
Bq         2.8353344572     0.5615241512     0.9557483990
Bq         2.8059645424     0.6462791862     1.0650827127
Bq         2.8573222710     0.6747345042     0.8738951645
Bq         2.7802856780     0.6320515272     1.1606764868
Bq         2.8830011353     0.6889621633     0.7783013904
Bq         2.7546068137     0.6178238681     1.2562702609
Bq         2.9086799997     0.7031898223     0.6827076163
Bq         2.7289279494     0.6035962091     1.3518640350
Bq         2.9343588640     0.7174174813     0.5871138422
Bq         2.7032490851     0.5893685501     1.4474578091
Bq         2.9600377283     0.7316451404     0.4915200681
Bq         2.8316434067     0.6605068452     0.9694889386
Bq         2.8022734918     0.7452618802     1.0788232522
Bq         2.8536312205     0.7737171983     0.8876357040
Bq         2.7765946275     0.7310342212     1.1744170263
Bq         2.8793100848     0.7879448573     0.7920419300
Bq         2.7509157632     0.7168065622     1.2700108004
Bq         2.9049889491     0.8021725163     0.6964481559
Bq         2.7252368989     0.7025789031     1.3656045745
Bq         2.9306678134     0.8164001754     0.6008543818
Bq         2.6995580345     0.6883512441     1.4611983486
Bq         2.9563466778     0.8306278344     0.5052606077
Bq         2.8279523562     0.7594895393     0.9832294781
Bq         2.7985824413     0.8442445743     1.0925637918
Bq         2.8499401699     0.8726998923     0.9013762436
Bq         2.7729035770     0.8300169152     1.1881575659
Bq         2.8756190343     0.8869275513     0.8057824695
Bq         2.7472247127     0.8157892562     1.2837513400
Bq         2.9012978986     0.9011552104     0.7101886954
Bq         2.7215458483     0.8015615972     1.3793451141
Bq         2.9269767629     0.9153828694     0.6145949213
Bq         2.6958669840     0.7873339381     1.4749388882
Bq         2.9526556272     0.9296105284     0.5190011472
Bq         2.8242613056     0.8584722333     0.9969700177
Bq         2.7948913908     0.9432272683     1.1063043314
Bq         2.8462491194     0.9716825864     0.9151167832
Bq         2.7692125264     0.9289996093     1.2018981055
Bq         2.8719279837     0.9859102454     0.8195230091
Bq         2.7435336621     0.9147719502     1.2974918795
Bq         2.8976068481     1.0001379044     0.7239292350
Bq         2.7178547978     0.9005442912     1.3930856536
Bq         2.9232857124     1.0143655634     0.6283354609
Bq         2.6921759335     0.8863166322     1.4886794277
Bq         2.9489645767     1.0285932225     0.5327416868
Bq         2.8205702551     0.9574549273     1.0107105573
Bq         2.7912003402     1.0422099623     1.1200448709
Bq         2.8425580689     1.0706652804     0.9288573227
Bq         2.7655214759     1.0279823033     1.2156386450
Bq         2.8682369332     1.0848929394     0.8332635486
Bq         2.7398426116     1.0137546443     1.3112324191
Bq         2.8939157975     1.0991205984     0.7376697745
Bq         2.7141637473     0.9995269852     1.4068261932
Bq         2.9195946618     1.1133482575     0.6420760004
Bq         2.6884848829     0.9852993262     1.5024199673
Bq         2.9452735262     1.1275759165     0.5464822263
Bq         2.8168792046     1.0564376214     1.0244510968
Bq         2.7875092897     1.1411926564     1.1337854105
Bq         2.8388670183     1.1696479744     0.9425978623
Bq         2.7618304254     1.1269649973     1.2293791846
Bq         2.8645458827     1.1838756335     0.8470040882
Bq         2.7361515610     1.1127373383     1.3249729587
Bq         2.8902247470     1.1981032925     0.7514103141
Bq         2.7104726967     1.0985096793     1.4205667328

1
2
3
4
5
6
7
8
9
10
11
12
13
14
15
16
17
18
19
20
21
22
23
24
25
26
27
28
29
30
31
32
33
34
35
36
37
38
39
40
41
42
43
44
45
46
47
48
49
50
51
52
53
54
55
56
57
58
59
60
61
62
63
64
65
66
67
68
69
70
71
72
73
74
75
76
77
78
79
80
81
82
83
84
85
86
87
88
89
90
91
92
93
94
95
96
97
98
99
100
101
102
103
104
105
106
107
108
109
110
111
112
113
114
115
116
117
118
119
120
121
122
123
124
125
126
127
128
129
130
131
132
133
134
135
136
137
138
139
140
141
142
143
144
145
146
147
148
149
150
151
152
153
154
155
156
157
158
159
160
161
162
163
164
165
166
167
168
169
170
171
172
173
174
175
176
177
178
179
180
181
182
183
184
185
186
187
188
189
190
191
192
193
194
195
196
197
198
199
200
201
202
203
204
205
206
207
208
209
210
211
212
213
214
215
216
217
218
219
220
221
222
223
224
225
226
227
228
229
230
231
232
233
234
235
236

