%nproc=8
%mem=1000MB
# rb3lyp/6-311+g** NMR geom=connectivity

Title

0 1
C    -4.0500558   -0.5771862    0.8136712
H    -5.0263804   -1.0082727    1.0024760
C    -3.9381552    0.6617804    0.2400876
H    -4.8252424    1.2338890   -0.0111295
C    -2.6768410    1.2433246    0.0057578
C    -1.4974121    0.5051527    0.2848253
C    -1.6508332   -0.7338728    0.9404026
H    -0.7713646   -1.2730967    1.2633753
C    -2.8898548   -1.2624035    1.1994307
H    -2.9683706   -2.2124563    1.7152676
C    -2.5773185    2.5963696   -0.4192930
H    -3.4870728    3.1412239   -0.6474055
C    -1.3741895    3.2147896   -0.4364030
H    -1.2997315    4.2742019   -0.6578144
C    -0.1719488    2.4994090   -0.1734588
C    -0.2043917    1.1018437    0.0192689
C     1.0513491    3.2042560   -0.0676222
H     1.0427344    4.2819499   -0.1896997
C     2.1942091    2.5487446    0.2579577
H     3.1168527    3.0912848    0.4334727
C     2.2216473    1.1336562    0.2934990
C     1.0486931    0.3945528    0.0302412
C     3.4483363    0.4614633    0.5573939
H     4.3095794    1.0606054    0.8334846
C     3.5427346   -0.8855926    0.4749463
H     4.4731467   -1.3939704    0.7038822
C     2.4490052   -1.6474447   -0.0196319
C     1.2150704   -1.0057258   -0.3013573
C     0.2531113   -1.7434440   -1.0216591
H    -0.6541356   -1.2535051   -1.3462847
C     0.4494193   -3.0628597   -1.3413779
H    -0.3083162   -3.5944309   -1.9054060
C     1.6251726   -3.7207967   -0.9552541
H     1.7670048   -4.7687404   -1.1927019
C     2.6109872   -3.0144177   -0.3183050
H     3.5525612   -3.4902813   -0.0646367
Bq         2.5738352181    -0.3442911410     1.2039219897
Bq         2.6606909363    -0.3737720515     0.6109743022
Bq         2.5593592650    -0.3393776559     1.3027466043
Bq         2.6751668894    -0.3786855365     0.5121496877
Bq         2.5448833120    -0.3344641708     1.4015712189
Bq         2.6896428424    -0.3835990216     0.4133250731
Bq         2.6172630772    -0.3590315962     0.9074481460
Bq         2.6034992581    -0.2542388958     1.0014111558
Bq         2.6324511642    -0.2640658659     0.8037619266
Bq         2.5890233051    -0.2493254107     1.1002357704
Bq         2.6469271172    -0.2689793510     0.7049373121
Bq         2.5745473520    -0.2444119256     1.1990603850
Bq         2.6614030703    -0.2738928361     0.6061126975
Bq         2.5600713990    -0.2394984405     1.2978849996
Bq         2.6758790233    -0.2788063212     0.5072880829
Bq         2.5455954459    -0.2345849554     1.3967096141
Bq         2.6903549764    -0.2837198063     0.4084634683
Bq         2.6179752112    -0.2591523808     0.9025865412
Bq         2.6042113921    -0.1543596804     0.9965495510
Bq         2.6331632981    -0.1641866505     0.7989003219
Bq         2.5897354390    -0.1494461953     1.0953741656
Bq         2.6476392512    -0.1691001356     0.7000757073
Bq         2.5752594860    -0.1445327102     1.1941987802
Bq         2.6621152042    -0.1740136207     0.6012510927
Bq         2.5607835329    -0.1396192251     1.2930233948
Bq         2.6765911573    -0.1789271058     0.5024264781
Bq         2.5463075799    -0.1347057400     1.3918480094
Bq         2.6910671103    -0.1838405909     0.4036018635
Bq         2.6186873451    -0.1592731655     0.8977249365
Bq         2.6049235260    -0.0544804650     0.9916879463
Bq         2.6338754321    -0.0643074352     0.7940387171
Bq         2.5904475729    -0.0495669799     1.0905125609
Bq         2.6483513851    -0.0692209203     0.6952141025
Bq         2.5759716199    -0.0446534948     1.1893371754
Bq         2.6628273382    -0.0741344053     0.5963894879
Bq         2.5614956669    -0.0397400098     1.2881617900
Bq         2.6773032912    -0.0790478904     0.4975648734
Bq         2.5470197138    -0.0348265247     1.3869864046
Bq         2.6917792443    -0.0839613755     0.3987402588
Bq         2.6193994790    -0.0593939501     0.8928633317
Bq         2.6056356599     0.0453987504     0.9868263415
Bq         2.6345875660     0.0355717802     0.7891771123
Bq         2.5911597069     0.0503122355     1.0856509561
Bq         2.6490635191     0.0306582951     0.6903524978
Bq         2.5766837538     0.0552257205     1.1844755707
Bq         2.6635394721     0.0257448100     0.5915278832
Bq         2.5622078008     0.0601392056     1.2833001853
Bq         2.6780154252     0.0208313250     0.4927032686
Bq         2.5477318478     0.0650526907     1.3821247998
Bq         2.6924913782     0.0159178399     0.3938786540
Bq         2.6201116130     0.0404852653     0.8880017269
Bq         2.6063477939     0.1452779658     0.9819647367
Bq         2.6352997000     0.1354509956     0.7843155076
Bq         2.5918718408     0.1501914508     1.0807893513
Bq         2.6497756530     0.1305375105     0.6854908930
Bq         2.5773958878     0.1551049359     1.1796139659
Bq         2.6642516061     0.1256240254     0.5866662784
Bq         2.5629199347     0.1600184210     1.2784385805
Bq         2.6787275591     0.1207105403     0.4878416638
Bq         2.5484439817     0.1649319061     1.3772631951
Bq         2.6932035121     0.1157970553     0.3890170492
Bq         2.6208237469     0.1403644807     0.8831401222
Bq         2.6070599278     0.2451571811     0.9771031320
Bq         2.6360118339     0.2353302110     0.7794539028
Bq         2.5925839748     0.2500706662     1.0759277466
Bq         2.6504877870     0.2304167259     0.6806292882
Bq         2.5781080217     0.2549841513     1.1747523611
Bq         2.6649637400     0.2255032408     0.5818046736
Bq         2.5636320687     0.2598976364     1.2735769757
Bq         2.6794396930     0.2205897557     0.4829800591
Bq         2.5491561156     0.2648111215     1.3724015903
Bq         2.6939156461     0.2156762706     0.3841554445
Bq         2.6215358809     0.2402436960     0.8782785174
Bq         2.6077720618     0.3450363965     0.9722415272
Bq         2.6367239678     0.3352094263     0.7745922980
Bq         2.5932961087     0.3499498816     1.0710661418
Bq         2.6511999209     0.3302959413     0.6757676835
Bq         2.5788201557     0.3548633667     1.1698907564
Bq         2.6656758739     0.3253824562     0.5769430689
Bq         2.5643442026     0.3597768518     1.2687153710
Bq         2.6801518270     0.3204689711     0.4781184543
Bq         2.5498682496     0.3646903368     1.3675399855
Bq         2.6946277800     0.3155554860     0.3792938397
Bq         2.6222480148     0.3401229114     0.8734169126
Bq         2.6084841957     0.4449156119     0.9673799224
Bq         2.6374361018     0.4350886417     0.7697306933
Bq         2.5940082427     0.4498290970     1.0662045370
Bq         2.6519120548     0.4301751566     0.6709060787
Bq         2.5795322896     0.4547425820     1.1650291516
Bq         2.6663880079     0.4252616716     0.5720814641
Bq         2.5650563366     0.4596560671     1.2638537662
Bq         2.6808639609     0.4203481865     0.4732568495
Bq         2.5505803835     0.4645695522     1.3626783808
Bq         2.6953399140     0.4154347014     0.3744322349
Bq         2.6229601487     0.4400021268     0.8685553079
Bq         2.6091963296     0.5447948273     0.9625183177
Bq         2.6381482357     0.5349678571     0.7648690885
Bq         2.5947203766     0.5497083123     1.0613429323
Bq         2.6526241888     0.5300543720     0.6660444739
Bq         2.5802444236     0.5546217974     1.1601675468
Bq         2.6671001418     0.5251408869     0.5672198593
Bq         2.5657684705     0.5595352825     1.2589921614
Bq         2.6815760949     0.5202274018     0.4683952448
Bq         2.5512925175     0.5644487676     1.3578167760
Bq         2.6960520479     0.5153139168     0.3695706302
Bq         2.6236722827     0.5398813422     0.8636937031
Bq         2.6099084636     0.6446740426     0.9576567129
Bq         2.6388603697     0.6348470725     0.7600074837
Bq         2.5954325105     0.6495875277     1.0564813275
Bq         2.6533363227     0.6299335874     0.6611828692
Bq         2.5809565575     0.6545010128     1.1553059421
Bq         2.6678122758     0.6250201023     0.5623582546
Bq         2.5664806045     0.6594144979     1.2541305567
Bq         2.6822882288     0.6201066172     0.4635336400
Bq         2.5520046514     0.6643279830     1.3529551712
Bq         2.6967641818     0.6151931321     0.3647090254
Bq         2.6243844166     0.6397605576     0.8588320983
Bq         2.6106205975     0.7445532580     0.9527951081
Bq         2.6395725036     0.7347262878     0.7551458790
Bq         2.5961446445     0.7494667431     1.0516197227
Bq         2.6540484567     0.7298128028     0.6563212644
Bq         2.5816686914     0.7543802282     1.1504443373
Bq         2.6685244097     0.7248993177     0.5574966498
Bq         2.5671927384     0.7592937133     1.2492689519
Bq         2.6830003627     0.7199858326     0.4586720352
Bq         2.5527167853     0.7642071983     1.3480935665
Bq         2.6974763158     0.7150723475     0.3598474206
Bq         2.6250965506     0.7396397729     0.8539704936
Bq         2.6113327315     0.8444324734     0.9479335034
Bq         2.6402846376     0.8346055032     0.7502842742
Bq         2.5968567784     0.8493459585     1.0467581180
Bq         2.6547605906     0.8296920181     0.6514596596
Bq         2.5823808254     0.8542594436     1.1455827325
Bq         2.6692365436     0.8247785331     0.5526350450
Bq         2.5679048723     0.8591729286     1.2444073471
Bq         2.6837124967     0.8198650480     0.4538104305
Bq         2.5534289193     0.8640864137     1.3432319617
Bq         2.6981884497     0.8149515629     0.3549858159
Bq         2.6258086845     0.8395189883     0.8491088888
Bq         2.6120448654     0.9443116888     0.9430718986
Bq         2.6409967715     0.9344847186     0.7454226694
Bq         2.5975689124     0.9492251739     1.0418965132
Bq         2.6554727245     0.9295712335     0.6465980549
Bq         2.5830929593     0.9541386589     1.1407211278
Bq         2.6699486776     0.9246577484     0.5477734403
Bq         2.5686170063     0.9590521440     1.2395457424
Bq         2.6844246306     0.9197442634     0.4489488257
Bq         2.5541410532     0.9639656291     1.3383703569
Bq         2.6989005837     0.9148307783     0.3501242111
Bq         2.6265208185     0.9393982037     0.8442472840
Bq         2.6127569994     1.0441909041     0.9382102938
Bq         2.6417089054     1.0343639340     0.7405610647
Bq         2.5982810463     1.0491043892     1.0370349084
Bq         2.6561848585     1.0294504489     0.6417364501
Bq         2.5838050933     1.0540178743     1.1358595230
Bq         2.6706608115     1.0245369638     0.5429118355
Bq         2.5693291402     1.0589313594     1.2346841376
Bq         2.6851367646     1.0196234787     0.4440872209
Bq         2.5548531872     1.0638448445     1.3335087522
Bq         2.6996127176     1.0147099936     0.3452626063
Bq         2.6272329524     1.0392774191     0.8393856793
Bq         2.6134691333     1.1440701195     0.9333486891
Bq         2.6424210394     1.1342431494     0.7356994599
Bq         2.5989931802     1.1489836046     1.0321733037
Bq         2.6568969924     1.1293296643     0.6368748453
Bq         2.5845172272     1.1538970897     1.1309979182
Bq         2.6713729455     1.1244161792     0.5380502307
Bq         2.5700412742     1.1588105748     1.2298225328
Bq         2.6858488985     1.1195026941     0.4392256162
Bq         2.5555653211     1.1637240599     1.3286471474
Bq         2.7003248516     1.1145892090     0.3404010016
Bq         2.6279450863     1.1391566344     0.8345240745
Bq         2.6141812672     1.2439493349     0.9284870843
Bq         2.6431331733     1.2341223647     0.7308378551
Bq         2.5997053142     1.2488628200     1.0273116989
Bq         2.6576091264     1.2292088797     0.6320132406
Bq         2.5852293611     1.2537763051     1.1261363135
Bq         2.6720850794     1.2242953946     0.5331886260
Bq         2.5707534081     1.2586897901     1.2249609281
Bq         2.6865610325     1.2193819095     0.4343640114
Bq         2.5562774551     1.2636032752     1.3237855426
Bq         2.7010369855     1.2144684244     0.3355393968
Bq         2.6286572203     1.2390358498     0.8296624697
Bq         2.6148934012     1.3438285503     0.9236254795
Bq         2.6438453073     1.3340015801     0.7259762504
Bq         2.6004174481     1.3487420354     1.0224500941
Bq         2.6583212603     1.3290880950     0.6271516358
Bq         2.5859414951     1.3536555204     1.1212747087
Bq         2.6727972134     1.3241746099     0.5283270212
Bq         2.5714655420     1.3585690055     1.2200993233
Bq         2.6872731664     1.3192611249     0.4295024066
Bq         2.5569895890     1.3634824906     1.3189239379
Bq         2.7017491194     1.3143476398     0.3306777920
Bq         2.6293693542     1.3389150652     0.8248008650
Bq         2.6156055351     1.4437077657     0.9187638748
Bq         2.6445574412     1.4338807955     0.7211146456
Bq         2.6011295821     1.4486212507     1.0175884894
Bq         2.6590333943     1.4289673104     0.6222900310
Bq         2.5866536290     1.4535347358     1.1164131039
Bq         2.6735093473     1.4240538253     0.5234654164

1
2
3
4
5
6
7
8
9
10
11
12
13
14
15
16
17
18
19
20
21
22
23
24
25
26
27
28
29
30
31
32
33
34
35
36
37
38
39
40
41
42
43
44
45
46
47
48
49
50
51
52
53
54
55
56
57
58
59
60
61
62
63
64
65
66
67
68
69
70
71
72
73
74
75
76
77
78
79
80
81
82
83
84
85
86
87
88
89
90
91
92
93
94
95
96
97
98
99
100
101
102
103
104
105
106
107
108
109
110
111
112
113
114
115
116
117
118
119
120
121
122
123
124
125
126
127
128
129
130
131
132
133
134
135
136
137
138
139
140
141
142
143
144
145
146
147
148
149
150
151
152
153
154
155
156
157
158
159
160
161
162
163
164
165
166
167
168
169
170
171
172
173
174
175
176
177
178
179
180
181
182
183
184
185
186
187
188
189
190
191
192
193
194
195
196
197
198
199
200
201
202
203
204
205
206
207
208
209
210
211
212
213
214
215
216
217
218
219
220
221
222
223
224
225
226
227
228
229
230
231
232
233
234
235
236

