%nproc=8
%mem=1000MB
# rb3lyp/6-311+g** NMR geom=connectivity

Title

0 1
C    -4.0500558   -0.5771862    0.8136712
H    -5.0263804   -1.0082727    1.0024760
C    -3.9381552    0.6617804    0.2400876
H    -4.8252424    1.2338890   -0.0111295
C    -2.6768410    1.2433246    0.0057578
C    -1.4974121    0.5051527    0.2848253
C    -1.6508332   -0.7338728    0.9404026
H    -0.7713646   -1.2730967    1.2633753
C    -2.8898548   -1.2624035    1.1994307
H    -2.9683706   -2.2124563    1.7152676
C    -2.5773185    2.5963696   -0.4192930
H    -3.4870728    3.1412239   -0.6474055
C    -1.3741895    3.2147896   -0.4364030
H    -1.2997315    4.2742019   -0.6578144
C    -0.1719488    2.4994090   -0.1734588
C    -0.2043917    1.1018437    0.0192689
C     1.0513491    3.2042560   -0.0676222
H     1.0427344    4.2819499   -0.1896997
C     2.1942091    2.5487446    0.2579577
H     3.1168527    3.0912848    0.4334727
C     2.2216473    1.1336562    0.2934990
C     1.0486931    0.3945528    0.0302412
C     3.4483363    0.4614633    0.5573939
H     4.3095794    1.0606054    0.8334846
C     3.5427346   -0.8855926    0.4749463
H     4.4731467   -1.3939704    0.7038822
C     2.4490052   -1.6474447   -0.0196319
C     1.2150704   -1.0057258   -0.3013573
C     0.2531113   -1.7434440   -1.0216591
H    -0.6541356   -1.2535051   -1.3462847
C     0.4494193   -3.0628597   -1.3413779
H    -0.3083162   -3.5944309   -1.9054060
C     1.6251726   -3.7207967   -0.9552541
H     1.7670048   -4.7687404   -1.1927019
C     2.6109872   -3.0144177   -0.3183050
H     3.5525612   -3.4902813   -0.0646367
Bq        -0.6884283275    -0.3562674883     1.7472663697
Bq        -0.6855963629    -0.7041292244     1.0268607946
Bq        -0.6887823231    -0.3127847713     1.8373170665
Bq        -0.6852423673    -0.7476119414     0.9368100977
Bq        -0.6870123452    -0.5301983563     1.3870635821
Bq        -0.6871954085    -0.3966642467     1.4336318980
Bq        -0.6864874173    -0.4836296807     1.2535305042
Bq        -0.6875494041    -0.3531815297     1.5236825949
Bq        -0.6861334218    -0.5271123977     1.1634798073
Bq        -0.6879033996    -0.3096988127     1.6137332917
Bq        -0.6857794262    -0.5705951147     1.0734291104
Bq        -0.6882573952    -0.2662160957     1.7037839886
Bq        -0.6854254306    -0.6140778317     0.9833784136
Bq        -0.6886113908    -0.2227333786     1.7938346855
Bq        -0.6850714350    -0.6575605487     0.8933277167
Bq        -0.6868414129    -0.4401469637     1.3435812011
Bq        -0.6870244762    -0.3066128540     1.3901495169
Bq        -0.6863164851    -0.3935782880     1.2100481232
Bq        -0.6873784718    -0.2631301370     1.4802002138
Bq        -0.6859624895    -0.4370610050     1.1199974263
Bq        -0.6877324674    -0.2196474200     1.5702509107
Bq        -0.6856084939    -0.4805437220     1.0299467294
Bq        -0.6880864629    -0.1761647030     1.6603016076
Bq        -0.6852544983    -0.5240264390     0.9398960325
Bq        -0.6884404585    -0.1326819860     1.7503523045
Bq        -0.6849005028    -0.5675091560     0.8498453356
Bq        -0.6866704806    -0.3500955710     1.3000988201
Bq        -0.6868535439    -0.2165614613     1.3466671359
Bq        -0.6861455528    -0.3035268953     1.1665657421
Bq        -0.6872075395    -0.1730787443     1.4367178328
Bq        -0.6857915572    -0.3470096123     1.0765150453
Bq        -0.6875615351    -0.1295960273     1.5267685297
Bq        -0.6854375616    -0.3904923293     0.9864643484
Bq        -0.6879155307    -0.0861133103     1.6168192266
Bq        -0.6850835661    -0.4339750463     0.8964136515
Bq        -0.6882695262    -0.0426305933     1.7068699234
Bq        -0.6847295705    -0.4774577634     0.8063629546
Bq        -0.6864995484    -0.2600441783     1.2566164390
Bq        -0.6866826117    -0.1265100687     1.3031847549
Bq        -0.6859746205    -0.2134755027     1.1230833611
Bq        -0.6870366072    -0.0830273517     1.3932354518
Bq        -0.6856206249    -0.2569582197     1.0330326642
Bq        -0.6873906028    -0.0395446346     1.4832861486
Bq        -0.6852666294    -0.3004409367     0.9429819673
Bq        -0.6877445984     0.0039380824     1.5733368455
Bq        -0.6849126338    -0.3439236537     0.8529312705
Bq        -0.6880985940     0.0474207994     1.6633875424
Bq        -0.6845586382    -0.3874063707     0.7628805736
Bq        -0.6863286161    -0.1699927857     1.2131340580
Bq        -0.6865116794    -0.0364586760     1.2597023738
Bq        -0.6858036882    -0.1234241100     1.0796009801
Bq        -0.6868656750     0.0070240410     1.3497530707
Bq        -0.6854496927    -0.1669068270     0.9895502832
Bq        -0.6872196705     0.0505067580     1.4398037676
Bq        -0.6850956971    -0.2103895440     0.8994995863
Bq        -0.6875736661     0.0939894750     1.5298544645
Bq        -0.6847417015    -0.2538722610     0.8094488894
Bq        -0.6879276617     0.1374721920     1.6199051614
Bq        -0.6843877059    -0.2973549780     0.7193981926
Bq        -0.6861576838    -0.0799413930     1.1696516770
Bq        -0.6863407471     0.0535927167     1.2162199928
Bq        -0.6856327560    -0.0333727173     1.0361185990
Bq        -0.6866947427     0.0970754337     1.3062706897
Bq        -0.6852787604    -0.0768554343     0.9460679022
Bq        -0.6870487383     0.1405581507     1.3963213866
Bq        -0.6849247648    -0.1203381513     0.8560172053
Bq        -0.6874027338     0.1840408677     1.4863720835
Bq        -0.6845707692    -0.1638208683     0.7659665084
Bq        -0.6877567294     0.2275235847     1.5764227803
Bq        -0.6842167737    -0.2073035853     0.6759158115
Bq        -0.6859867515     0.0101099997     1.1261692959
Bq        -0.6861698148     0.1436441094     1.1727376118
Bq        -0.6854618237     0.0566786753     0.9926362180
Bq        -0.6865238104     0.1871268264     1.2627883087
Bq        -0.6851078281     0.0131959583     0.9025855211
Bq        -0.6868778060     0.2306095434     1.3528390055
Bq        -0.6847538325    -0.0302867587     0.8125348243
Bq        -0.6872318016     0.2740922604     1.4428897024
Bq        -0.6843998370    -0.0737694757     0.7224841274
Bq        -0.6875857971     0.3175749774     1.5329403993
Bq        -0.6840458414    -0.1172521927     0.6324334305
Bq        -0.6858158193     0.1001613924     1.0826869149
Bq        -0.6859988826     0.2336955020     1.1292552307
Bq        -0.6852908914     0.1467300680     0.9491538370
Bq        -0.6863528781     0.2771782190     1.2193059276
Bq        -0.6849368958     0.1032473510     0.8591031401
Bq        -0.6867068737     0.3206609360     1.3093566245
Bq        -0.6845829003     0.0597646340     0.7690524432
Bq        -0.6870608693     0.3641436530     1.3994073214
Bq        -0.6842289047     0.0162819170     0.6790017463
Bq        -0.6874148649     0.4076263700     1.4894580183
Bq        -0.6838749091    -0.0272008000     0.5889510495
Bq        -0.6856448870     0.1902127850     1.0392045339
Bq        -0.6858279503     0.3237468947     1.0857728497
Bq        -0.6851199591     0.2367814607     0.9056714560
Bq        -0.6861819459     0.3672296117     1.1758235466
Bq        -0.6847659636     0.1932987437     0.8156207591
Bq        -0.6865359414     0.4107123287     1.2658742435
Bq        -0.6844119680     0.1498160267     0.7255700622
Bq        -0.6868899370     0.4541950457     1.3559249404
Bq        -0.6840579724     0.1063333097     0.6355193653
Bq        -0.6872439326     0.4976777627     1.4459756372
Bq        -0.6837039768     0.0628505927     0.5454686684
Bq        -0.6854739547     0.2802641777     0.9957221528
Bq        -0.6856570180     0.4137982874     1.0422904687
Bq        -0.6849490269     0.3268328534     0.8621890749
Bq        -0.6860110136     0.4572810044     1.1323411656
Bq        -0.6845950313     0.2833501364     0.7721383780
Bq        -0.6863650092     0.5007637214     1.2223918624
Bq        -0.6842410357     0.2398674194     0.6820876812
Bq        -0.6867190047     0.5442464384     1.3124425593
Bq        -0.6838870401     0.1963847023     0.5920369843
Bq        -0.6870730003     0.5877291554     1.4024932562
Bq        -0.6835330446     0.1529019853     0.5019862874
Bq        -0.6853030224     0.3703155704     0.9522397718
Bq        -0.6854860857     0.5038496800     0.9988080877
Bq        -0.6847780946     0.4168842460     0.8187066939
Bq        -0.6858400813     0.5473323970     1.0888587845
Bq        -0.6844240990     0.3734015290     0.7286559970
Bq        -0.6861940769     0.5908151140     1.1789094814
Bq        -0.6840701034     0.3299188120     0.6386053001
Bq        -0.6865480725     0.6342978311     1.2689601783
Bq        -0.6837161079     0.2864360950     0.5485546032
Bq        -0.6869020680     0.6777805481     1.3590108752
Bq        -0.6833621123     0.2429533780     0.4585039064
Bq        -0.6851320902     0.4603669630     0.9087573908
Bq        -0.6853151535     0.5939010727     0.9553257066
Bq        -0.6846071623     0.5069356387     0.7752243129
Bq        -0.6856691490     0.6373837897     1.0453764035
Bq        -0.6842531667     0.4634529217     0.6851736160
Bq        -0.6860231446     0.6808665067     1.1354271004
Bq        -0.6838991712     0.4199702047     0.5951229191
Bq        -0.6863771402     0.7243492237     1.2254777973
Bq        -0.6835451756     0.3764874877     0.5050722222
Bq        -0.6867311358     0.7678319407     1.3155284941
Bq        -0.6831911800     0.3330047707     0.4150215253
Bq        -0.6849611579     0.5504183557     0.8652750097
Bq        -0.6851442212     0.6839524654     0.9118433256
Bq        -0.6844362300     0.5969870314     0.7317419318
Bq        -0.6854982168     0.7274351824     1.0018940225
Bq        -0.6840822345     0.5535043144     0.6416912349
Bq        -0.6858522123     0.7709178994     1.0919447194
Bq        -0.6837282389     0.5100215974     0.5516405381
Bq        -0.6862062079     0.8144006164     1.1819954162
Bq        -0.6833742433     0.4665388804     0.4615898412
Bq        -0.6865602035     0.8578833334     1.2720461131
Bq        -0.6830202477     0.4230561634     0.3715391443
Bq        -0.6847902256     0.6404697484     0.8217926287
Bq        -0.6849732889     0.7740038581     0.8683609446
Bq        -0.6842652978     0.6870384240     0.6882595508
Bq        -0.6853272845     0.8174865751     0.9584116414
Bq        -0.6839113022     0.6435557070     0.5982088539
Bq        -0.6856812801     0.8609692921     1.0484623383
Bq        -0.6835573066     0.6000729900     0.5081581570
Bq        -0.6860352756     0.9044520091     1.1385130352
Bq        -0.6832033110     0.5565902730     0.4181074601
Bq        -0.6863892712     0.9479347261     1.2285637321
Bq        -0.6828493155     0.5131075560     0.3280567633
Bq        -0.6846192933     0.7305211410     0.7783102477
Bq        -0.6848023566     0.8640552507     0.8248785635
Bq        -0.6840943655     0.7770898167     0.6447771698
Bq        -0.6851563522     0.9075379677     0.9149292604
Bq        -0.6837403699     0.7336070997     0.5547264729
Bq        -0.6855103478     0.9510206847     1.0049799573
Bq        -0.6833863743     0.6901243827     0.4646757760
Bq        -0.6858643434     0.9945034017     1.0950306542
Bq        -0.6830323788     0.6466416657     0.3746250791
Bq        -0.6862183389     1.0379861187     1.1850813511
Bq        -0.6826783832     0.6031589487     0.2845743822
Bq        -0.6844483611     0.8205725337     0.7348278666
Bq        -0.6846314244     0.9541066434     0.7813961825
Bq        -0.6839234332     0.8671412094     0.6012947887
Bq        -0.6849854199     0.9975893604     0.8714468794
Bq        -0.6835694376     0.8236584924     0.5112440918
Bq        -0.6853394155     1.0410720774     0.9614975763
Bq        -0.6832154421     0.7801757754     0.4211933950
Bq        -0.6856934111     1.0845547944     1.0515482731
Bq        -0.6828614465     0.7366930584     0.3311426981
Bq        -0.6860474067     1.1280375114     1.1415989700
Bq        -0.6825074509     0.6932103414     0.2410920012
Bq        -0.6842774288     0.9106239264     0.6913454856
Bq        -0.6844604921     1.0441580361     0.7379138015
Bq        -0.6837525009     0.9571926021     0.5578124077
Bq        -0.6848144877     1.0876407531     0.8279644983
Bq        -0.6833985054     0.9137098850     0.4677617108
Bq        -0.6851684832     1.1311234701     0.9180151952
Bq        -0.6830445098     0.8702271680     0.3777110139
Bq        -0.6855224788     1.1746061871     1.0080658921
Bq        -0.6826905142     0.8267444510     0.2876603170
Bq        -0.6858764744     1.2180889041     1.0981165890
Bq        -0.6823365186     0.7832617340     0.1976096202
Bq        -0.6841064965     1.0006753191     0.6478631046
Bq        -0.6842895598     1.1342094287     0.6944314204
Bq        -0.6835815687     1.0472439947     0.5143300267
Bq        -0.6846435554     1.1776921457     0.7844821173
Bq        -0.6832275731     1.0037612777     0.4242793298
Bq        -0.6849975510     1.2211748627     0.8745328142
Bq        -0.6828735775     0.9602785607     0.3342286329
Bq        -0.6853515465     1.2646575797     0.9645835111
Bq        -0.6825195819     0.9167958437     0.2441779360

1
2
3
4
5
6
7
8
9
10
11
12
13
14
15
16
17
18
19
20
21
22
23
24
25
26
27
28
29
30
31
32
33
34
35
36
37
38
39
40
41
42
43
44
45
46
47
48
49
50
51
52
53
54
55
56
57
58
59
60
61
62
63
64
65
66
67
68
69
70
71
72
73
74
75
76
77
78
79
80
81
82
83
84
85
86
87
88
89
90
91
92
93
94
95
96
97
98
99
100
101
102
103
104
105
106
107
108
109
110
111
112
113
114
115
116
117
118
119
120
121
122
123
124
125
126
127
128
129
130
131
132
133
134
135
136
137
138
139
140
141
142
143
144
145
146
147
148
149
150
151
152
153
154
155
156
157
158
159
160
161
162
163
164
165
166
167
168
169
170
171
172
173
174
175
176
177
178
179
180
181
182
183
184
185
186
187
188
189
190
191
192
193
194
195
196
197
198
199
200
201
202
203
204
205
206
207
208
209
210
211
212
213
214
215
216
217
218
219
220
221
222
223
224
225
226
227
228
229
230
231
232
233
234
235
236

