%nproc=8
%mem=1000MB
# rb3lyp/6-311+g** NMR geom=connectivity

Title

0 1
C    -4.0500558   -0.5771862    0.8136712
H    -5.0263804   -1.0082727    1.0024760
C    -3.9381552    0.6617804    0.2400876
H    -4.8252424    1.2338890   -0.0111295
C    -2.6768410    1.2433246    0.0057578
C    -1.4974121    0.5051527    0.2848253
C    -1.6508332   -0.7338728    0.9404026
H    -0.7713646   -1.2730967    1.2633753
C    -2.8898548   -1.2624035    1.1994307
H    -2.9683706   -2.2124563    1.7152676
C    -2.5773185    2.5963696   -0.4192930
H    -3.4870728    3.1412239   -0.6474055
C    -1.3741895    3.2147896   -0.4364030
H    -1.2997315    4.2742019   -0.6578144
C    -0.1719488    2.4994090   -0.1734588
C    -0.2043917    1.1018437    0.0192689
C     1.0513491    3.2042560   -0.0676222
H     1.0427344    4.2819499   -0.1896997
C     2.1942091    2.5487446    0.2579577
H     3.1168527    3.0912848    0.4334727
C     2.2216473    1.1336562    0.2934990
C     1.0486931    0.3945528    0.0302412
C     3.4483363    0.4614633    0.5573939
H     4.3095794    1.0606054    0.8334846
C     3.5427346   -0.8855926    0.4749463
H     4.4731467   -1.3939704    0.7038822
C     2.4490052   -1.6474447   -0.0196319
C     1.2150704   -1.0057258   -0.3013573
C     0.2531113   -1.7434440   -1.0216591
H    -0.6541356   -1.2535051   -1.3462847
C     0.4494193   -3.0628597   -1.3413779
H    -0.3083162   -3.5944309   -1.9054060
C     1.6251726   -3.7207967   -0.9552541
H     1.7670048   -4.7687404   -1.1927019
C     2.6109872   -3.0144177   -0.3183050
H     3.5525612   -3.4902813   -0.0646367
Bq         3.3214483846    -2.8578159686     0.5043028748
Bq         3.2018630932    -2.9376629219     0.7675970490
Bq         3.3613101484    -2.8312003175     0.4165381501
Bq         3.1620013294    -2.9642785730     0.8553617737
Bq         3.4011719121    -2.8045846664     0.3287734254
Bq         3.1221395656    -2.9908942241     0.9431264984
Bq         3.4410336759    -2.7779690153     0.2410087007
Bq         3.0822778018    -3.0175098753     1.0308912231
Bq         3.4808954397    -2.7513533642     0.1532439760
Bq         3.2815866208    -2.8844316197     0.5920675996
Bq         3.2307183836    -2.8146542881     0.7040655747
Bq         3.3104419112    -2.7614229859     0.5285361253
Bq         3.1908566198    -2.8412699392     0.7918302994
Bq         3.3503036750    -2.7348073348     0.4407714006
Bq         3.1509948560    -2.8678855903     0.8795950242
Bq         3.3901654388    -2.7081916837     0.3530066759
Bq         3.1111330923    -2.8945012414     0.9673597489
Bq         3.4300272026    -2.6815760326     0.2652419512
Bq         3.0712713285    -2.9211168925     1.0551244736
Bq         3.4698889663    -2.6549603815     0.1774772264
Bq         3.2705801474    -2.7880386370     0.6163008500
Bq         3.2197119102    -2.7182613054     0.7282988252
Bq         3.2994354378    -2.6650300032     0.5527693758
Bq         3.1798501465    -2.7448769565     0.8160635499
Bq         3.3392972016    -2.6384143521     0.4650046510
Bq         3.1399883827    -2.7714926076     0.9038282746
Bq         3.3791589654    -2.6117987010     0.3772399263
Bq         3.1001266189    -2.7981082587     0.9915929993
Bq         3.4190207292    -2.5851830499     0.2894752016
Bq         3.0602648551    -2.8247239098     1.0793577240
Bq         3.4588824930    -2.5585673988     0.2017104769
Bq         3.2595736740    -2.6916456543     0.6405341005
Bq         3.2087054369    -2.6218683227     0.7525320756
Bq         3.2884289645    -2.5686370205     0.5770026262
Bq         3.1688436731    -2.6484839738     0.8402968004
Bq         3.3282907282    -2.5420213694     0.4892379015
Bq         3.1289819093    -2.6750996249     0.9280615251
Bq         3.3681524920    -2.5154057183     0.4014731768
Bq         3.0891201455    -2.7017152760     1.0158262498
Bq         3.4080142558    -2.4887900672     0.3137084521
Bq         3.0492583817    -2.7283309271     1.1035909745
Bq         3.4478760196    -2.4621744160     0.2259437274
Bq         3.2485672007    -2.5952526716     0.6647673509
Bq         3.1976989635    -2.5254753400     0.7767653261
Bq         3.2774224911    -2.4722440378     0.6012358767
Bq         3.1578371997    -2.5520909911     0.8645300508
Bq         3.3172842549    -2.4456283867     0.5134711520
Bq         3.1179754359    -2.5787066422     0.9522947755
Bq         3.3571460187    -2.4190127355     0.4257064272
Bq         3.0781136721    -2.6053222933     1.0400595002
Bq         3.3970077824    -2.3923970844     0.3379417025
Bq         3.0382519084    -2.6319379444     1.1278242250
Bq         3.4368695462    -2.3657814333     0.2501769778
Bq         3.2375607273    -2.4988596889     0.6890006014
Bq         3.1866924901    -2.4290823573     0.8009985766
Bq         3.2664160177    -2.3758510550     0.6254691271
Bq         3.1468307263    -2.4556980084     0.8887633013
Bq         3.3062777815    -2.3492354039     0.5377044024
Bq         3.1069689626    -2.4823136595     0.9765280260
Bq         3.3461395453    -2.3226197528     0.4499396777
Bq         3.0671071988    -2.5089293106     1.0642927507
Bq         3.3860013091    -2.2960041017     0.3621749530
Bq         3.0272454350    -2.5355449617     1.1520574754
Bq         3.4258630729    -2.2693884506     0.2744102283
Bq         3.2265542539    -2.4024667062     0.7132338518
Bq         3.1756860168    -2.3326893746     0.8252318270
Bq         3.2554095443    -2.2794580723     0.6497023776
Bq         3.1358242530    -2.3593050257     0.9129965517
Bq         3.2952713081    -2.2528424212     0.5619376529
Bq         3.0959624892    -2.3859206768     1.0007612764
Bq         3.3351330719    -2.2262267701     0.4741729282
Bq         3.0561007254    -2.4125363279     1.0885260012
Bq         3.3749948357    -2.1996111190     0.3864082035
Bq         3.0162389616    -2.4391519790     1.1762907259
Bq         3.4148565995    -2.1729954679     0.2986434787
Bq         3.2155477805    -2.3060737234     0.7374671023
Bq         3.1646795434    -2.2362963918     0.8494650775
Bq         3.2444030710    -2.1830650896     0.6739356280
Bq         3.1248177796    -2.2629120429     0.9372298022
Bq         3.2842648348    -2.1564494385     0.5861709033
Bq         3.0849560158    -2.2895276941     1.0249945269
Bq         3.3241265985    -2.1298337874     0.4984061786
Bq         3.0450942520    -2.3161433452     1.1127592516
Bq         3.3639883623    -2.1032181363     0.4106414539
Bq         3.0052324882    -2.3427589963     1.2005239763
Bq         3.4038501261    -2.0766024852     0.3228767292
Bq         3.2045413072    -2.2096807407     0.7617003528
Bq         3.1536730700    -2.1399034091     0.8736983279
Bq         3.2333965976    -2.0866721069     0.6981688785
Bq         3.1138113062    -2.1665190602     0.9614630526
Bq         3.2732583614    -2.0600564558     0.6104041538
Bq         3.0739495424    -2.1931347113     1.0492277774
Bq         3.3131201252    -2.0334408047     0.5226394291
Bq         3.0340877787    -2.2197503624     1.1369925021
Bq         3.3529818890    -2.0068251536     0.4348747044
Bq         2.9942260149    -2.2463660136     1.2247572268
Bq         3.3928436527    -1.9802095025     0.3471099797
Bq         3.1935348338    -2.1132877580     0.7859336032
Bq         3.1426665966    -2.0435104264     0.8979315784
Bq         3.2223901242    -1.9902791242     0.7224021290
Bq         3.1028048329    -2.0701260775     0.9856963031
Bq         3.2622518880    -1.9636634731     0.6346374043
Bq         3.0629430691    -2.0967417286     1.0734610278
Bq         3.3021136518    -1.9370478220     0.5468726795
Bq         3.0230813053    -2.1233573797     1.1612257525
Bq         3.3419754156    -1.9104321709     0.4591079548
Bq         2.9832195415    -2.1499730308     1.2489904772
Bq         3.3818371794    -1.8838165198     0.3713432301
Bq         3.1825283604    -2.0168947753     0.8101668537
Bq         3.1316601233    -1.9471174437     0.9221648288
Bq         3.2113836508    -1.8938861415     0.7466353794
Bq         3.0917983595    -1.9737330948     1.0099295536
Bq         3.2512454146    -1.8672704904     0.6588706547
Bq         3.0519365957    -2.0003487459     1.0976942783
Bq         3.2911071784    -1.8406548393     0.5711059300
Bq         3.0120748319    -2.0269643970     1.1854590030
Bq         3.3309689422    -1.8140391882     0.4833412053
Bq         2.9722130681    -2.0535800481     1.2732237277
Bq         3.3708307060    -1.7874235371     0.3955764806
Bq         3.1715218871    -1.9205017926     0.8344001041
Bq         3.1206536499    -1.8507244610     0.9463980793
Bq         3.2003771775    -1.7974931588     0.7708686299
Bq         3.0807918861    -1.8773401121     1.0341628040
Bq         3.2402389413    -1.7708775077     0.6831039052
Bq         3.0409301223    -1.9039557632     1.1219275287
Bq         3.2801007051    -1.7442618566     0.5953391805
Bq         3.0010683585    -1.9305714143     1.2096922534
Bq         3.3199624688    -1.7176462055     0.5075744557
Bq         2.9612065948    -1.9571870654     1.2974569782
Bq         3.3598242326    -1.6910305543     0.4198097310
Bq         3.1605154137    -1.8241088099     0.8586333546
Bq         3.1096471765    -1.7543314783     0.9706313298
Bq         3.1893707041    -1.7011001761     0.7951018803
Bq         3.0697854127    -1.7809471294     1.0583960545
Bq         3.2292324679    -1.6744845250     0.7073371556
Bq         3.0299236490    -1.8075627805     1.1461607792
Bq         3.2690942317    -1.6478688739     0.6195724309
Bq         2.9900618852    -1.8341784316     1.2339255039
Bq         3.3089559955    -1.6212532227     0.5318077062
Bq         2.9502001214    -1.8607940827     1.3216902286
Bq         3.3488177593    -1.5946375716     0.4440429815
Bq         3.1495089403    -1.7277158272     0.8828666051
Bq         3.0986407032    -1.6579384956     0.9948645802
Bq         3.1783642307    -1.6047071934     0.8193351308
Bq         3.0587789394    -1.6845541467     1.0826293049
Bq         3.2182259945    -1.5780915422     0.7315704061
Bq         3.0189171756    -1.7111697978     1.1703940296
Bq         3.2580877583    -1.5514758911     0.6438056814
Bq         2.9790554118    -1.7377854489     1.2581587544
Bq         3.2979495221    -1.5248602400     0.5560409567
Bq         2.9391936480    -1.7644011000     1.3459234791
Bq         3.3378112859    -1.4982445889     0.4682762319
Bq         3.1385024669    -1.6313228445     0.9070998555
Bq         3.0876342298    -1.5615455129     1.0190978307
Bq         3.1673577574    -1.5083142106     0.8435683813
Bq         3.0477724660    -1.5881611640     1.1068625554
Bq         3.2072195211    -1.4816985595     0.7558036565
Bq         3.0079107022    -1.6147768151     1.1946272801
Bq         3.2470812849    -1.4550829084     0.6680389318
Bq         2.9680489384    -1.6413924662     1.2823920048
Bq         3.2869430487    -1.4284672573     0.5802742071
Bq         2.9281871746    -1.6680081173     1.3701567295
Bq         3.3268048125    -1.4018516062     0.4925094824
Bq         3.1274959936    -1.5349298617     0.9313331060
Bq         3.0766277564    -1.4651525301     1.0433310811
Bq         3.1563512840    -1.4119212279     0.8678016317
Bq         3.0367659926    -1.4917681812     1.1310958059
Bq         3.1962130478    -1.3853055768     0.7800369070
Bq         2.9969042288    -1.5183838324     1.2188605306
Bq         3.2360748116    -1.3586899257     0.6922721823
Bq         2.9570424650    -1.5449994835     1.3066252553
Bq         3.2759365753    -1.3320742746     0.6045074576
Bq         2.9171807013    -1.5716151346     1.3943899800
Bq         3.3157983391    -1.3054586235     0.5167427329
Bq         3.1164895202    -1.4385368790     0.9555663564
Bq         3.0656212830    -1.3687595474     1.0675643316
Bq         3.1453448106    -1.3155282452     0.8920348822
Bq         3.0257595193    -1.3953751985     1.1553290563
Bq         3.1852065744    -1.2889125941     0.8042701575
Bq         2.9858977555    -1.4219908496     1.2430937810
Bq         3.2250683382    -1.2622969430     0.7165054327
Bq         2.9460359917    -1.4486065008     1.3308585057
Bq         3.2649301020    -1.2356812919     0.6287407080
Bq         2.9061742279    -1.4752221519     1.4186232304
Bq         3.3047918658    -1.2090656408     0.5409759833
Bq         3.1054830468    -1.3421438963     0.9797996069
Bq         3.0546148097    -1.2723665647     1.0917975821
Bq         3.1343383372    -1.2191352625     0.9162681326
Bq         3.0147530459    -1.2989822158     1.1795623068
Bq         3.1742001010    -1.1925196114     0.8285034079
Bq         2.9748912821    -1.3255978669     1.2673270315
Bq         3.2140618648    -1.1659039603     0.7407386832
Bq         2.9350295183    -1.3522135180     1.3550917562
Bq         3.2539236286    -1.1392883092     0.6529739585
Bq         2.8951677545    -1.3788291691     1.4428564809
Bq         3.2937853924    -1.1126726581     0.5652092338
Bq         3.0944765735    -1.2457509136     1.0040328573
Bq         3.0436083363    -1.1759735820     1.1160308325
Bq         3.1233318639    -1.1227422798     0.9405013831
Bq         3.0037465725    -1.2025892331     1.2037955572

1
2
3
4
5
6
7
8
9
10
11
12
13
14
15
16
17
18
19
20
21
22
23
24
25
26
27
28
29
30
31
32
33
34
35
36
37
38
39
40
41
42
43
44
45
46
47
48
49
50
51
52
53
54
55
56
57
58
59
60
61
62
63
64
65
66
67
68
69
70
71
72
73
74
75
76
77
78
79
80
81
82
83
84
85
86
87
88
89
90
91
92
93
94
95
96
97
98
99
100
101
102
103
104
105
106
107
108
109
110
111
112
113
114
115
116
117
118
119
120
121
122
123
124
125
126
127
128
129
130
131
132
133
134
135
136
137
138
139
140
141
142
143
144
145
146
147
148
149
150
151
152
153
154
155
156
157
158
159
160
161
162
163
164
165
166
167
168
169
170
171
172
173
174
175
176
177
178
179
180
181
182
183
184
185
186
187
188
189
190
191
192
193
194
195
196
197
198
199
200
201
202
203
204
205
206
207
208
209
210
211
212
213
214
215
216
217
218
219
220
221
222
223
224
225
226
227
228
229
230
231
232
233
234
235
236

