%nproc=8
%mem=1000MB
# rb3lyp/6-311+g** NMR geom=connectivity

Title

0 1
C    -4.0500558   -0.5771862    0.8136712
H    -5.0263804   -1.0082727    1.0024760
C    -3.9381552    0.6617804    0.2400876
H    -4.8252424    1.2338890   -0.0111295
C    -2.6768410    1.2433246    0.0057578
C    -1.4974121    0.5051527    0.2848253
C    -1.6508332   -0.7338728    0.9404026
H    -0.7713646   -1.2730967    1.2633753
C    -2.8898548   -1.2624035    1.1994307
H    -2.9683706   -2.2124563    1.7152676
C    -2.5773185    2.5963696   -0.4192930
H    -3.4870728    3.1412239   -0.6474055
C    -1.3741895    3.2147896   -0.4364030
H    -1.2997315    4.2742019   -0.6578144
C    -0.1719488    2.4994090   -0.1734588
C    -0.2043917    1.1018437    0.0192689
C     1.0513491    3.2042560   -0.0676222
H     1.0427344    4.2819499   -0.1896997
C     2.1942091    2.5487446    0.2579577
H     3.1168527    3.0912848    0.4334727
C     2.2216473    1.1336562    0.2934990
C     1.0486931    0.3945528    0.0302412
C     3.4483363    0.4614633    0.5573939
H     4.3095794    1.0606054    0.8334846
C     3.5427346   -0.8855926    0.4749463
H     4.4731467   -1.3939704    0.7038822
C     2.4490052   -1.6474447   -0.0196319
C     1.2150704   -1.0057258   -0.3013573
C     0.2531113   -1.7434440   -1.0216591
H    -0.6541356   -1.2535051   -1.3462847
C     0.4494193   -3.0628597   -1.3413779
H    -0.3083162   -3.5944309   -1.9054060
C     1.6251726   -3.7207967   -0.9552541
H     1.7670048   -4.7687404   -1.1927019
C     2.6109872   -3.0144177   -0.3183050
H     3.5525612   -3.4902813   -0.0646367
Bq         0.7619948248     1.5705861417     0.4528827951
Bq         0.7504688808     1.6442340939     0.7434737993
Bq         0.7658368061     1.5460368244     0.3560191270
Bq         0.7466268995     1.6687834113     0.8403374674
Bq         0.7696787874     1.5214875070     0.2591554589
Bq         0.7427849181     1.6933327286     0.9372011355
Bq         0.7735207688     1.4969381896     0.1622917908
Bq         0.7389429368     1.7178820460     1.0340648036
Bq         0.7773627501     1.4723888722     0.0654281227
Bq         0.7581528434     1.5951354591     0.5497464632
Bq         0.7552838163     1.7166246084     0.6220801018
Bq         0.7629677790     1.6675259737     0.4283527657
Bq         0.7514418350     1.7411739258     0.7189437699
Bq         0.7668097603     1.6429766563     0.3314890976
Bq         0.7475998537     1.7657232432     0.8158074380
Bq         0.7706517417     1.6184273389     0.2346254295
Bq         0.7437578724     1.7902725606     0.9126711061
Bq         0.7744937230     1.5938780216     0.1377617614
Bq         0.7399158910     1.8148218779     1.0095347742
Bq         0.7783357043     1.5693287042     0.0408980933
Bq         0.7591257977     1.6920752911     0.5252164337
Bq         0.7562567706     1.8135644404     0.5975500724
Bq         0.7639407332     1.7644658056     0.4038227362
Bq         0.7524147892     1.8381137578     0.6944137405
Bq         0.7677827146     1.7399164882     0.3069590681
Bq         0.7485728079     1.8626630751     0.7912774086
Bq         0.7716246959     1.7153671709     0.2100954000
Bq         0.7447308266     1.8872123925     0.8881410767
Bq         0.7754666772     1.6908178535     0.1132317320
Bq         0.7408888453     1.9117617099     0.9850047448
Bq         0.7793086585     1.6662685361     0.0163680639
Bq         0.7600987519     1.7890151230     0.5006864043
Bq         0.7572297248     1.9105042723     0.5730200430
Bq         0.7649136875     1.8614056376     0.3792927068
Bq         0.7533877435     1.9350535897     0.6698837111
Bq         0.7687556688     1.8368563202     0.2824290387
Bq         0.7495457621     1.9596029071     0.7667473792
Bq         0.7725976501     1.8123070028     0.1855653706
Bq         0.7457037808     1.9841522244     0.8636110472
Bq         0.7764396314     1.7877576854     0.0887017025
Bq         0.7418617995     2.0087015418     0.9604747153
Bq         0.7802816128     1.7632083681    -0.0081619656
Bq         0.7610717061     1.8859549549     0.4761563749
Bq         0.7582026790     2.0074441043     0.5484900135
Bq         0.7658866417     1.9583454695     0.3547626774
Bq         0.7543606977     2.0319934216     0.6453536816
Bq         0.7697286230     1.9337961521     0.2578990093
Bq         0.7505187164     2.0565427390     0.7422173497
Bq         0.7735706043     1.9092468348     0.1610353412
Bq         0.7466767350     2.0810920564     0.8390810178
Bq         0.7774125857     1.8846975174     0.0641716731
Bq         0.7428347537     2.1056413738     0.9359446859
Bq         0.7812545670     1.8601482000    -0.0326919950
Bq         0.7620446603     1.9828947869     0.4516263455
Bq         0.7591756332     2.1043839362     0.5239599841
Bq         0.7668595959     2.0552853014     0.3302326479
Bq         0.7553336519     2.1289332536     0.6208236522
Bq         0.7707015772     2.0307359841     0.2333689799
Bq         0.7514916706     2.1534825709     0.7176873203
Bq         0.7745435586     2.0061866667     0.1365053118
Bq         0.7476496893     2.1780318883     0.8145509884
Bq         0.7783855399     1.9816373493     0.0396416437
Bq         0.7438077079     2.2025812057     0.9114146565
Bq         0.7822275212     1.9570880319    -0.0572220244
Bq         0.7630176146     2.0798346188     0.4270963160
Bq         0.7601485875     2.2013237681     0.4994299547
Bq         0.7678325501     2.1522251334     0.3057026185
Bq         0.7563066061     2.2258730855     0.5962936228
Bq         0.7716745315     2.1276758160     0.2088389504
Bq         0.7524646248     2.2504224029     0.6931572909
Bq         0.7755165128     2.1031264986     0.1119752823
Bq         0.7486226435     2.2749717203     0.7900209590
Bq         0.7793584941     2.0785771813     0.0151116142
Bq         0.7447806621     2.2995210376     0.8868846271
Bq         0.7832004754     2.0540278639    -0.0817520538
Bq         0.7639905688     2.1767744508     0.4025662866
Bq         0.7611215417     2.2982636001     0.4748999253
Bq         0.7688055043     2.2491649653     0.2811725891
Bq         0.7572795604     2.3228129174     0.5717635934
Bq         0.7726474857     2.2246156479     0.1843089210
Bq         0.7534375790     2.3473622348     0.6686272614
Bq         0.7764894670     2.2000663306     0.0874452529
Bq         0.7495955977     2.3719115522     0.7654909295
Bq         0.7803314483     2.1755170132    -0.0094184152
Bq         0.7457536164     2.3964608696     0.8623545976
Bq         0.7841734297     2.1509676958    -0.1062820833
Bq         0.7649635230     2.2737142827     0.3780362572
Bq         0.7620944959     2.3952034320     0.4503698958
Bq         0.7697784586     2.3461047973     0.2566425597
Bq         0.7582525146     2.4197527494     0.5472335639
Bq         0.7736204399     2.3215554799     0.1597788916
Bq         0.7544105333     2.4443020668     0.6440972320
Bq         0.7774624212     2.2970061625     0.0629152235
Bq         0.7505685519     2.4688513841     0.7409609001
Bq         0.7813044026     2.2724568451    -0.0339484446
Bq         0.7467265706     2.4934007015     0.8378245682
Bq         0.7851463839     2.2479075278    -0.1308121127
Bq         0.7659364772     2.3706541146     0.3535062278
Bq         0.7630674501     2.4921432640     0.4258398664
Bq         0.7707514128     2.4430446292     0.2321125302
Bq         0.7592254688     2.5166925813     0.5227035345
Bq         0.7745933941     2.4184953118     0.1352488621
Bq         0.7553834875     2.5412418987     0.6195672026
Bq         0.7784353755     2.3939459944     0.0383851941
Bq         0.7515415062     2.5657912161     0.7164308707
Bq         0.7822773568     2.3693966771    -0.0584784740
Bq         0.7476995248     2.5903405335     0.8132945388
Bq         0.7861193381     2.3448473597    -0.1553421421
Bq         0.7669094315     2.4675939466     0.3289761983
Bq         0.7640404044     2.5890830959     0.4013098370
Bq         0.7717243670     2.5399844611     0.2075825008
Bq         0.7601984230     2.6136324133     0.4981735051
Bq         0.7755663484     2.5154351438     0.1107188327
Bq         0.7563564417     2.6381817306     0.5950371732
Bq         0.7794083297     2.4908858264     0.0138551646
Bq         0.7525144604     2.6627310480     0.6919008413
Bq         0.7832503110     2.4663365090    -0.0830085035
Bq         0.7486724790     2.6872803654     0.7887645093
Bq         0.7870922923     2.4417871916    -0.1798721716
Bq         0.7678823857     2.5645337785     0.3044461689
Bq         0.7650133586     2.6860229278     0.3767798076
Bq         0.7726973212     2.6369242931     0.1830524714
Bq         0.7611713773     2.7105722452     0.4736434756
Bq         0.7765393026     2.6123749757     0.0861888033
Bq         0.7573293959     2.7351215626     0.5705071437
Bq         0.7803812839     2.5878256583    -0.0106748648
Bq         0.7534874146     2.7596708800     0.6673708118
Bq         0.7842232652     2.5632763409    -0.1075385329
Bq         0.7496454333     2.7842201973     0.7642344799
Bq         0.7880652466     2.5387270236    -0.2044022010
Bq         0.7688553399     2.6614736105     0.2799161395
Bq         0.7659863128     2.7829627598     0.3522497781
Bq         0.7736702755     2.7338641250     0.1585224420
Bq         0.7621443315     2.8075120771     0.4491134462
Bq         0.7775122568     2.7093148076     0.0616587739
Bq         0.7583023502     2.8320613945     0.5459771143
Bq         0.7813542381     2.6847654903    -0.0352048942
Bq         0.7544603688     2.8566107119     0.6428407824
Bq         0.7851962195     2.6602161729    -0.1320685623
Bq         0.7506183875     2.8811600293     0.7397044505
Bq         0.7890382008     2.6356668555    -0.2289322304
Bq         0.7698282941     2.7584134424     0.2553861100
Bq         0.7669592670     2.8799025917     0.3277197487
Bq         0.7746432297     2.8308039570     0.1339924125
Bq         0.7631172857     2.9044519091     0.4245834168
Bq         0.7784852110     2.8062546396     0.0371287444
Bq         0.7592753044     2.9290012265     0.5214470849
Bq         0.7823271924     2.7817053222    -0.0597349237
Bq         0.7554333230     2.9535505438     0.6183107530
Bq         0.7861691737     2.7571560048    -0.1565985917
Bq         0.7515913417     2.9780998612     0.7151744211
Bq         0.7900111550     2.7326066875    -0.2534622598
Bq         0.7708012484     2.8553532743     0.2308560806
Bq         0.7679322213     2.9768424236     0.3031897193
Bq         0.7756161839     2.9277437889     0.1094623831
Bq         0.7640902399     3.0013917410     0.4000533874
Bq         0.7794581652     2.9031944715     0.0125987150
Bq         0.7602482586     3.0259410584     0.4969170555
Bq         0.7833001466     2.8786451541    -0.0842649531
Bq         0.7564062773     3.0504903758     0.5937807235
Bq         0.7871421279     2.8540958368    -0.1811286212
Bq         0.7525642959     3.0750396931     0.6906443916
Bq         0.7909841092     2.8295465194    -0.2779922893
Bq         0.7717742026     2.9522931063     0.2063260512
Bq         0.7689051755     3.0737822556     0.2786596899
Bq         0.7765891381     3.0246836208     0.0849323537
Bq         0.7650631942     3.0983315730     0.3755233579
Bq         0.7804311195     3.0001343035    -0.0119313144
Bq         0.7612212128     3.1228808903     0.4723870260
Bq         0.7842731008     2.9755849861    -0.1087949825
Bq         0.7573792315     3.1474302077     0.5692506941
Bq         0.7881150821     2.9510356687    -0.2056586506
Bq         0.7535372502     3.1719795251     0.6661143622
Bq         0.7919570635     2.9264863513    -0.3025223187
Bq         0.7727471568     3.0492329382     0.1817960218
Bq         0.7698781297     3.1707220875     0.2541296604
Bq         0.7775620924     3.1216234528     0.0604023242
Bq         0.7660361484     3.1952714049     0.3509933285
Bq         0.7814040737     3.0970741354    -0.0364613438
Bq         0.7621941671     3.2198207223     0.4478569966
Bq         0.7852460550     3.0725248180    -0.1333250119
Bq         0.7583521857     3.2443700397     0.5447206647
Bq         0.7890880364     3.0479755006    -0.2301886800
Bq         0.7545102044     3.2689193570     0.6415843328
Bq         0.7929300177     3.0234261833    -0.3270523481
Bq         0.7737201110     3.1461727701     0.1572659923
Bq         0.7708510839     3.2676619195     0.2295996310
Bq         0.7785350466     3.2185632847     0.0358722948
Bq         0.7670091026     3.2922112368     0.3264632991
Bq         0.7823770279     3.1940139673    -0.0609913733
Bq         0.7631671213     3.3167605542     0.4233269672
Bq         0.7862190093     3.1694646500    -0.1578550414
Bq         0.7593251399     3.3413098716     0.5201906353
Bq         0.7900609906     3.1449153326    -0.2547187095
Bq         0.7554831586     3.3658591890     0.6170543034
Bq         0.7939029719     3.1203660152    -0.3515823775
Bq         0.7746930653     3.2431126021     0.1327359629
Bq         0.7718240382     3.3646017514     0.2050696016
Bq         0.7795080008     3.3155031167     0.0113422654
Bq         0.7679820568     3.3891510688     0.3019332697

1
2
3
4
5
6
7
8
9
10
11
12
13
14
15
16
17
18
19
20
21
22
23
24
25
26
27
28
29
30
31
32
33
34
35
36
37
38
39
40
41
42
43
44
45
46
47
48
49
50
51
52
53
54
55
56
57
58
59
60
61
62
63
64
65
66
67
68
69
70
71
72
73
74
75
76
77
78
79
80
81
82
83
84
85
86
87
88
89
90
91
92
93
94
95
96
97
98
99
100
101
102
103
104
105
106
107
108
109
110
111
112
113
114
115
116
117
118
119
120
121
122
123
124
125
126
127
128
129
130
131
132
133
134
135
136
137
138
139
140
141
142
143
144
145
146
147
148
149
150
151
152
153
154
155
156
157
158
159
160
161
162
163
164
165
166
167
168
169
170
171
172
173
174
175
176
177
178
179
180
181
182
183
184
185
186
187
188
189
190
191
192
193
194
195
196
197
198
199
200
201
202
203
204
205
206
207
208
209
210
211
212
213
214
215
216
217
218
219
220
221
222
223
224
225
226
227
228
229
230
231
232
233
234
235
236

