%nproc=8
%mem=1000MB
# rb3lyp/6-311+g** NMR geom=connectivity

Title

0 1
C    -4.0500558   -0.5771862    0.8136712
H    -5.0263804   -1.0082727    1.0024760
C    -3.9381552    0.6617804    0.2400876
H    -4.8252424    1.2338890   -0.0111295
C    -2.6768410    1.2433246    0.0057578
C    -1.4974121    0.5051527    0.2848253
C    -1.6508332   -0.7338728    0.9404026
H    -0.7713646   -1.2730967    1.2633753
C    -2.8898548   -1.2624035    1.1994307
H    -2.9683706   -2.2124563    1.7152676
C    -2.5773185    2.5963696   -0.4192930
H    -3.4870728    3.1412239   -0.6474055
C    -1.3741895    3.2147896   -0.4364030
H    -1.2997315    4.2742019   -0.6578144
C    -0.1719488    2.4994090   -0.1734588
C    -0.2043917    1.1018437    0.0192689
C     1.0513491    3.2042560   -0.0676222
H     1.0427344    4.2819499   -0.1896997
C     2.1942091    2.5487446    0.2579577
H     3.1168527    3.0912848    0.4334727
C     2.2216473    1.1336562    0.2934990
C     1.0486931    0.3945528    0.0302412
C     3.4483363    0.4614633    0.5573939
H     4.3095794    1.0606054    0.8334846
C     3.5427346   -0.8855926    0.4749463
H     4.4731467   -1.3939704    0.7038822
C     2.4490052   -1.6474447   -0.0196319
C     1.2150704   -1.0057258   -0.3013573
C     0.2531113   -1.7434440   -1.0216591
H    -0.6541356   -1.2535051   -1.3462847
C     0.4494193   -3.0628597   -1.3413779
H    -0.3083162   -3.5944309   -1.9054060
C     1.6251726   -3.7207967   -0.9552541
H     1.7670048   -4.7687404   -1.1927019
C     2.6109872   -3.0144177   -0.3183050
H     3.5525612   -3.4902813   -0.0646367
Bq         1.4090663036     0.4154347014     0.1860172691
Bq         1.3366865384     0.4400021268     0.6801403420
Bq         1.3229227193     0.5447948273     0.7741033518
Bq         1.3518746254     0.5349678571     0.5764541226
Bq         1.3084467663     0.5497083123     0.8729279664
Bq         1.3663505784     0.5300543720     0.4776295080
Bq         1.2939708132     0.5546217974     0.9717525810
Bq         1.3808265315     0.5251408869     0.3788048935
Bq         1.2794948602     0.5595352825     1.0705771955
Bq         1.3953024845     0.5202274018     0.2799802789
Bq         1.2650189071     0.5644487676     1.1694018101
Bq         1.4097784376     0.5153139168     0.1811556643
Bq         1.3373986724     0.5398813422     0.6752787372
Bq         1.3236348533     0.6446740426     0.7692417470
Bq         1.3525867593     0.6348470725     0.5715925179
Bq         1.3091589002     0.6495875277     0.8680663616
Bq         1.3670627124     0.6299335874     0.4727679033
Bq         1.2946829472     0.6545010128     0.9668909762
Bq         1.3815386654     0.6250201023     0.3739432887
Bq         1.2802069941     0.6594144979     1.0657155908
Bq         1.3960146185     0.6201066172     0.2751186741
Bq         1.2657310411     0.6643279830     1.1645402054
Bq         1.4104905715     0.6151931321     0.1762940595
Bq         1.3381108063     0.6397605576     0.6704171324
Bq         1.3243469872     0.7445532580     0.7643801423
Bq         1.3532988933     0.7347262878     0.5667309131
Bq         1.3098710342     0.7494667431     0.8632047568
Bq         1.3677748463     0.7298128028     0.4679062985
Bq         1.2953950811     0.7543802282     0.9620293714
Bq         1.3822507994     0.7248993177     0.3690816839
Bq         1.2809191281     0.7592937133     1.0608539860
Bq         1.3967267524     0.7199858326     0.2702570693
Bq         1.2664431750     0.7642071983     1.1596786006
Bq         1.4112027055     0.7150723475     0.1714324548
Bq         1.3388229402     0.7396397729     0.6655555277
Bq         1.3250591211     0.8444324734     0.7595185375
Bq         1.3540110272     0.8346055032     0.5618693083
Bq         1.3105831681     0.8493459585     0.8583431521
Bq         1.3684869803     0.8296920181     0.4630446937
Bq         1.2961072150     0.8542594436     0.9571677667
Bq         1.3829629333     0.8247785331     0.3642200792
Bq         1.2816312620     0.8591729286     1.0559923812
Bq         1.3974388864     0.8198650480     0.2653954646
Bq         1.2671553090     0.8640864137     1.1548169958
Bq         1.4119148394     0.8149515629     0.1665708500
Bq         1.3395350742     0.8395189883     0.6606939229
Bq         1.3257712551     0.9443116888     0.7546569327
Bq         1.3547231612     0.9344847186     0.5570077036
Bq         1.3112953020     0.9492251739     0.8534815473
Bq         1.3691991142     0.9295712335     0.4581830890
Bq         1.2968193490     0.9541386589     0.9523061619
Bq         1.3836750673     0.9246577484     0.3593584744
Bq         1.2823433959     0.9590521440     1.0511307765
Bq         1.3981510203     0.9197442634     0.2605338598
Bq         1.2678674429     0.9639656291     1.1499553911
Bq         1.4126269733     0.9148307783     0.1617092452
Bq         1.3402472081     0.9393982037     0.6558323181
Bq         1.3264833890     1.0441909041     0.7497953280
Bq         1.3554352951     1.0343639340     0.5521460988
Bq         1.3120074360     1.0491043892     0.8486199425
Bq         1.3699112482     1.0294504489     0.4533214842
Bq         1.2975314829     1.0540178743     0.9474445571
Bq         1.3843872012     1.0245369638     0.3544968696
Bq         1.2830555299     1.0589313594     1.0462691717
Bq         1.3988631542     1.0196234787     0.2556722550
Bq         1.2685795768     1.0638448445     1.1450937863
Bq         1.4133391073     1.0147099936     0.1568476405
Bq         1.3409593421     1.0392774191     0.6509707134
Bq         1.3271955230     1.1440701195     0.7449337232
Bq         1.3561474291     1.1342431494     0.5472844940
Bq         1.3127195699     1.1489836046     0.8437583378
Bq         1.3706233821     1.1293296643     0.4484598794
Bq         1.2982436169     1.1538970897     0.9425829524
Bq         1.3850993351     1.1244161792     0.3496352649
Bq         1.2837676638     1.1588105748     1.0414075669
Bq         1.3995752882     1.1195026941     0.2508106503
Bq         1.2692917108     1.1637240599     1.1402321815
Bq         1.4140512412     1.1145892090     0.1519860357
Bq         1.3416714760     1.1391566344     0.6461091086
Bq         1.3279076569     1.2439493349     0.7400721184
Bq         1.3568595630     1.2341223647     0.5424228893
Bq         1.3134317039     1.2488628200     0.8388967330
Bq         1.3713355160     1.2292088797     0.4435982747
Bq         1.2989557508     1.2537763051     0.9377213476
Bq         1.3858114691     1.2242953946     0.3447736601
Bq         1.2844797978     1.2586897901     1.0365459622
Bq         1.4002874221     1.2193819095     0.2459490455
Bq         1.2700038447     1.2636032752     1.1353705768
Bq         1.4147633752     1.2144684244     0.1471244309
Bq         1.3423836099     1.2390358498     0.6412475038
Bq         1.3286197908     1.3438285503     0.7352105137
Bq         1.3575716969     1.3340015801     0.5375612845
Bq         1.3141438378     1.3487420354     0.8340351282
Bq         1.3720476500     1.3290880950     0.4387366699
Bq         1.2996678848     1.3536555204     0.9328597428
Bq         1.3865236030     1.3241746099     0.3399120553
Bq         1.2851919317     1.3585690055     1.0316843574
Bq         1.4009995561     1.3192611249     0.2410874407
Bq         1.2707159787     1.3634824906     1.1305089720
Bq         1.4154755091     1.3143476398     0.1422628262
Bq         1.3430957439     1.3389150652     0.6363858991
Bq         1.3293319248     1.4437077657     0.7303489089
Bq         1.3582838309     1.4338807955     0.5326996797
Bq         1.3148559717     1.4486212507     0.8291735235
Bq         1.3727597839     1.4289673104     0.4338750651
Bq         1.3003800187     1.4535347358     0.9279981381
Bq         1.3872357370     1.4240538253     0.3350504506
Bq         1.2859040657     1.4584482209     1.0268227527
Bq         1.4017116900     1.4191403402     0.2362258360
Bq         1.2714281126     1.4633617060     1.1256473672
Bq         1.4161876431     1.4142268552     0.1374012214
Bq         1.3438078778     1.4387942806     0.6315242943
Bq         1.3300440587     1.5435869810     0.7254873041
Bq         1.3589959648     1.5337600109     0.5278380750
Bq         1.3155681057     1.5485004661     0.8243119187
Bq         1.3734719179     1.5288465258     0.4290134604
Bq         1.3010921526     1.5534139512     0.9231365333
Bq         1.3879478709     1.5239330407     0.3301888458
Bq         1.2866161996     1.5583274363     1.0219611479
Bq         1.4024238240     1.5190195556     0.2313642312
Bq         1.2721402466     1.5632409214     1.1207857625
Bq         1.4168997770     1.5141060705     0.1325396166
Bq         1.3445200118     1.5386734959     0.6266626895
Bq         1.3307561927     1.6434661964     0.7206256994
Bq         1.3597080988     1.6336392262     0.5229764702
Bq         1.3162802396     1.6483796815     0.8194503139
Bq         1.3741840518     1.6287257412     0.4241518556
Bq         1.3018042866     1.6532931666     0.9182749285
Bq         1.3886600048     1.6238122561     0.3253272410
Bq         1.2873283335     1.6582066517     1.0170995431
Bq         1.4031359579     1.6188987710     0.2265026264
Bq         1.2728523805     1.6631201367     1.1159241577
Bq         1.4176119109     1.6139852859     0.1276780119
Bq         1.3452321457     1.6385527113     0.6218010848
Bq         1.3314683266     1.7433454118     0.7157640946
Bq         1.3604202327     1.7335184416     0.5181148654
Bq         1.3169923736     1.7482588969     0.8145887092
Bq         1.3748961857     1.7286049565     0.4192902508
Bq         1.3025164205     1.7531723819     0.9134133238
Bq         1.3893721388     1.7236914715     0.3204656363
Bq         1.2880404675     1.7580858670     1.0122379384
Bq         1.4038480918     1.7187779864     0.2216410217
Bq         1.2735645144     1.7629993521     1.1110625529
Bq         1.4183240449     1.7138645013     0.1228164071
Bq         1.3459442797     1.7384319267     0.6169394800
Bq         1.3321804606     1.8432246272     0.7109024898
Bq         1.3611323666     1.8333976570     0.5132532607
Bq         1.3177045075     1.8481381122     0.8097271044
Bq         1.3756083197     1.8284841719     0.4144286461
Bq         1.3032285545     1.8530515973     0.9085517190
Bq         1.3900842727     1.8235706868     0.3156040315
Bq         1.2887526014     1.8579650824     1.0073763336
Bq         1.4045602258     1.8186572017     0.2167794169
Bq         1.2742766484     1.8628785675     1.1062009482
Bq         1.4190361788     1.8137437167     0.1179548023
Bq         1.3466564136     1.8383111421     0.6120778752
Bq         1.3328925945     1.9431038425     0.7060408851
Bq         1.3618445006     1.9332768724     0.5083916559
Bq         1.3184166415     1.9480173276     0.8048654996
Bq         1.3763204536     1.9283633873     0.4095670413
Bq         1.3039406884     1.9529308127     0.9036901142
Bq         1.3907964067     1.9234499022     0.3107424267
Bq         1.2894647354     1.9578442978     1.0025147288
Bq         1.4052723597     1.9185364171     0.2119178121
Bq         1.2749887823     1.9627577829     1.1013393434
Bq         1.4197483128     1.9136229320     0.1130931976
Bq         1.3473685475     1.9381903575     0.6072162705
Bq         1.3336047284     2.0429830579     0.7011792803
Bq         1.3625566345     2.0331560878     0.5035300511
Bq         1.3191287754     2.0478965430     0.8000038949
Bq         1.3770325876     2.0282426027     0.4047054365
Bq         1.3046528223     2.0528100281     0.8988285095
Bq         1.3915085406     2.0233291176     0.3058808220
Bq         1.2901768693     2.0577235132     0.9976531241
Bq         1.4059844937     2.0184156325     0.2070562074
Bq         1.2757009163     2.0626369982     1.0964777386
Bq         1.4204604467     2.0135021474     0.1082315928
Bq         1.3480806815     2.0380695728     0.6023546657
Bq         1.3343168624     2.1428622733     0.6963176755
Bq         1.3632687685     2.1330353031     0.4986684464
Bq         1.3198409093     2.1477757584     0.7951422901
Bq         1.3777447215     2.1281218180     0.3998438318
Bq         1.3053649563     2.1526892435     0.8939669047
Bq         1.3922206746     2.1232083330     0.3010192172
Bq         1.2908890032     2.1576027285     0.9927915193
Bq         1.4066966276     2.1182948479     0.2021946026
Bq         1.2764130502     2.1625162136     1.0916161339
Bq         1.4211725806     2.1133813628     0.1033699880
Bq         1.3487928154     2.1379487882     0.5974930609
Bq         1.3350289963     2.2427414887     0.6914560708
Bq         1.3639809024     2.2329145185     0.4938068416
Bq         1.3205530433     2.2476549738     0.7902806853
Bq         1.3784568555     2.2280010334     0.3949822270
Bq         1.3060770902     2.2525684588     0.8891052999
Bq         1.3929328085     2.2230875483     0.2961576124
Bq         1.2916011372     2.2574819439     0.9879299145
Bq         1.4074087615     2.2181740633     0.1973329978
Bq         1.2771251841     2.2623954290     1.0867545291
Bq         1.4218847146     2.2132605782     0.0985083833
Bq         1.3495049494     2.2378280036     0.5926314562

1
2
3
4
5
6
7
8
9
10
11
12
13
14
15
16
17
18
19
20
21
22
23
24
25
26
27
28
29
30
31
32
33
34
35
36
37
38
39
40
41
42
43
44
45
46
47
48
49
50
51
52
53
54
55
56
57
58
59
60
61
62
63
64
65
66
67
68
69
70
71
72
73
74
75
76
77
78
79
80
81
82
83
84
85
86
87
88
89
90
91
92
93
94
95
96
97
98
99
100
101
102
103
104
105
106
107
108
109
110
111
112
113
114
115
116
117
118
119
120
121
122
123
124
125
126
127
128
129
130
131
132
133
134
135
136
137
138
139
140
141
142
143
144
145
146
147
148
149
150
151
152
153
154
155
156
157
158
159
160
161
162
163
164
165
166
167
168
169
170
171
172
173
174
175
176
177
178
179
180
181
182
183
184
185
186
187
188
189
190
191
192
193
194
195
196
197
198
199
200
201
202
203
204
205
206
207
208
209
210
211
212
213
214
215
216
217
218
219
220
221
222
223
224
225
226
227
228
229
230
231
232
233
234
235
236

