%nproc=8
%mem=1000MB
# rb3lyp/6-311+g** NMR geom=connectivity

Title

0 1
C    -4.0500558   -0.5771862    0.8136712
H    -5.0263804   -1.0082727    1.0024760
C    -3.9381552    0.6617804    0.2400876
H    -4.8252424    1.2338890   -0.0111295
C    -2.6768410    1.2433246    0.0057578
C    -1.4974121    0.5051527    0.2848253
C    -1.6508332   -0.7338728    0.9404026
H    -0.7713646   -1.2730967    1.2633753
C    -2.8898548   -1.2624035    1.1994307
H    -2.9683706   -2.2124563    1.7152676
C    -2.5773185    2.5963696   -0.4192930
H    -3.4870728    3.1412239   -0.6474055
C    -1.3741895    3.2147896   -0.4364030
H    -1.2997315    4.2742019   -0.6578144
C    -0.1719488    2.4994090   -0.1734588
C    -0.2043917    1.1018437    0.0192689
C     1.0513491    3.2042560   -0.0676222
H     1.0427344    4.2819499   -0.1896997
C     2.1942091    2.5487446    0.2579577
H     3.1168527    3.0912848    0.4334727
C     2.2216473    1.1336562    0.2934990
C     1.0486931    0.3945528    0.0302412
C     3.4483363    0.4614633    0.5573939
H     4.3095794    1.0606054    0.8334846
C     3.5427346   -0.8855926    0.4749463
H     4.4731467   -1.3939704    0.7038822
C     2.4490052   -1.6474447   -0.0196319
C     1.2150704   -1.0057258   -0.3013573
C     0.2531113   -1.7434440   -1.0216591
H    -0.6541356   -1.2535051   -1.3462847
C     0.4494193   -3.0628597   -1.3413779
H    -0.3083162   -3.5944309   -1.9054060
C     1.6251726   -3.7207967   -0.9552541
H     1.7670048   -4.7687404   -1.1927019
C     2.6109872   -3.0144177   -0.3183050
H     3.5525612   -3.4902813   -0.0646367
Bq        -1.4984023993     4.1143136520    -0.5911740726
Bq        -1.5329802313     4.3352575084     0.2805989402
Bq        -1.4945604180     4.0897643346    -0.6880377407
Bq        -1.5137703247     4.2125109215    -0.2037194002
Bq        -1.5166393518     4.3340000708    -0.1313857616
Bq        -1.5089553891     4.2849014360    -0.3251130978
Bq        -1.5204813331     4.3585493882    -0.0345220935
Bq        -1.5051134078     4.2603521187    -0.4219767658
Bq        -1.5243233144     4.3830987055     0.0623415746
Bq        -1.5012714264     4.2358028013    -0.5188404339
Bq        -1.5281652957     4.4076480229     0.1592052427
Bq        -1.4974294451     4.2112534839    -0.6157041020
Bq        -1.5320072771     4.4321973403     0.2560689108
Bq        -1.4935874638     4.1867041665    -0.7125677701
Bq        -1.5127973704     4.3094507534    -0.2282494297
Bq        -1.5156663975     4.4309399027    -0.1559157910
Bq        -1.5079824349     4.3818412680    -0.3496431272
Bq        -1.5195083789     4.4554892201    -0.0590521229
Bq        -1.5041404535     4.3572919506    -0.4465067953
Bq        -1.5233503602     4.4800385375     0.0378115452
Bq        -1.5002984722     4.3327426332    -0.5433704634
Bq        -1.5271923415     4.5045878549     0.1346752133
Bq        -1.4964564909     4.3081933159    -0.6402341315
Bq        -1.5310343228     4.5291371722     0.2315388814
Bq        -1.4926145096     4.2836439985    -0.7370977995
Bq        -1.5118244162     4.4063905854    -0.2527794591
Bq        -1.4643926769    -0.4160516942     1.0745489442
Bq        -1.4567087143    -0.4651503290     0.8808216080
Bq        -1.4682346582    -0.3915023768     1.1714126123
Bq        -1.4528667329    -0.4896996464     0.7839579399
Bq        -1.4720766396    -0.3669530595     1.2682762804
Bq        -1.4490247516    -0.5142489637     0.6870942719
Bq        -1.4759186209    -0.3424037421     1.3651399485
Bq        -1.4451827703    -0.5387982811     0.5902306038
Bq        -1.4797606022    -0.3178544247     1.4620036166
Bq        -1.4413407889    -0.5633475985     0.4933669357
Bq        -1.4605506956    -0.4406010116     0.9776852761
Bq        -1.4634197227    -0.3191118623     1.0500189148
Bq        -1.4557357600    -0.3682104970     0.8562915786
Bq        -1.4672617040    -0.2945625449     1.1468825829
Bq        -1.4518937787    -0.3927598144     0.7594279105
Bq        -1.4711036854    -0.2700132275     1.2437462510
Bq        -1.4480517974    -0.4173091318     0.6625642424
Bq        -1.4749456667    -0.2454639102     1.3406099191
Bq        -1.4442098160    -0.4418584492     0.5657005743
Bq        -1.4787876480    -0.2209145928     1.4374735872
Bq        -1.4403678347    -0.4664077665     0.4688369063
Bq        -1.4595777414    -0.3436611797     0.9531552467
Bq        -1.4624467685    -0.2221720303     1.0254888854
Bq        -1.4547628058    -0.2712706651     0.8317615492
Bq        -1.4662887498    -0.1976227130     1.1223525535
Bq        -1.4509208245    -0.2958199825     0.7348978811
Bq        -1.4701307311    -0.1730733956     1.2192162215
Bq        -1.4470788432    -0.3203692998     0.6380342130
Bq        -1.4739727125    -0.1485240782     1.3160798896
Bq        -1.4432368618    -0.3449186172     0.5411705449
Bq        -1.4778146938    -0.1239747608     1.4129435577
Bq        -1.4393948805    -0.3694679346     0.4443068768
Bq        -1.4586047871    -0.2467213477     0.9286252173
Bq        -1.4614738142    -0.1252321984     1.0009588559
Bq        -1.4537898516    -0.1743308332     0.8072315198
Bq        -1.4653157956    -0.1006828810     1.0978225240
Bq        -1.4499478703    -0.1988801505     0.7103678517
Bq        -1.4691577769    -0.0761335637     1.1946861921
Bq        -1.4461058889    -0.2234294679     0.6135041836
Bq        -1.4729997582    -0.0515842463     1.2915498602
Bq        -1.4422639076    -0.2479787853     0.5166405155
Bq        -1.4768417396    -0.0270349289     1.3884135283
Bq        -1.4384219263    -0.2725281027     0.4197768474
Bq        -1.4576318329    -0.1497815158     0.9040951878
Bq        -1.4605008600    -0.0282923665     0.9764288265
Bq        -1.4528168974    -0.0773910012     0.7827014903
Bq        -1.4643428414    -0.0037430491     1.0732924946
Bq        -1.4489749160    -0.1019403186     0.6858378222
Bq        -1.4681848227     0.0208062683     1.1701561627
Bq        -1.4451329347    -0.1264896360     0.5889741541
Bq        -1.4720268040     0.0453555857     1.2670198308
Bq        -1.4412909534    -0.1510389533     0.4921104861
Bq        -1.4758687853     0.0699049030     1.3638834989
Bq        -1.4374489720    -0.1755882707     0.3952468180
Bq        -1.4566588787    -0.0528416838     0.8795651584
Bq        -1.4595279058     0.0686474655     0.9518987971
Bq        -1.4518439431     0.0195488307     0.7581714609
Bq        -1.4633698871     0.0931967828     1.0487624652
Bq        -1.4480019618    -0.0050004867     0.6613077928
Bq        -1.4672118685     0.1177461002     1.1456261333
Bq        -1.4441599805    -0.0295498040     0.5644441247
Bq        -1.4710538498     0.1422954176     1.2424898014
Bq        -1.4403179992    -0.0540991214     0.4675804566
Bq        -1.4748958311     0.1668447350     1.3393534694
Bq        -1.4364760178    -0.0786484388     0.3707167885
Bq        -1.4556859245     0.0440981481     0.8550351290
Bq        -1.4585549516     0.1655872974     0.9273687677
Bq        -1.4508709889     0.1164886627     0.7336414315
Bq        -1.4623969329     0.1901366148     1.0242324357
Bq        -1.4470290076     0.0919393453     0.6367777634
Bq        -1.4662389142     0.2146859322     1.1210961038
Bq        -1.4431870263     0.0673900279     0.5399140953
Bq        -1.4700808956     0.2392352495     1.2179597719
Bq        -1.4393450449     0.0428407105     0.4430504272
Bq        -1.4739228769     0.2637845669     1.3148234400
Bq        -1.4355030636     0.0182913932     0.3461867591
Bq        -1.4547129702     0.1410379800     0.8305050996
Bq        -1.4575819973     0.2625271294     0.9028387382
Bq        -1.4498980347     0.2134284946     0.7091114020
Bq        -1.4614239787     0.2870764467     0.9997024063
Bq        -1.4460560534     0.1888791772     0.6122477340
Bq        -1.4652659600     0.3116257641     1.0965660744
Bq        -1.4422140720     0.1643298598     0.5153840659
Bq        -1.4691079413     0.3361750815     1.1934297425
Bq        -1.4383720907     0.1397805425     0.4185203978
Bq        -1.4729499227     0.3607243989     1.2902934106
Bq        -1.4345301094     0.1152312251     0.3216567297
Bq        -1.4537400160     0.2379778120     0.8059750701
Bq        -1.4566090431     0.3594669613     0.8783087088
Bq        -1.4489250805     0.3103683265     0.6845813726
Bq        -1.4604510245     0.3840162787     0.9751723769
Bq        -1.4450830991     0.2858190092     0.5877177045
Bq        -1.4642930058     0.4085655960     1.0720360450
Bq        -1.4412411178     0.2612696918     0.4908540364
Bq        -1.4681349871     0.4331149134     1.1688997131
Bq        -1.4373991365     0.2367203744     0.3939903684
Bq        -1.4719769684     0.4576642308     1.2657633812
Bq        -1.4335571551     0.2121710570     0.2971267003
Bq        -1.4527670618     0.3349176439     0.7814450407
Bq        -1.4556360889     0.4564067932     0.8537786794
Bq        -1.4479521262     0.4073081585     0.6600513432
Bq        -1.4594780702     0.4809561106     0.9506423475
Bq        -1.4441101449     0.3827588411     0.5631876751
Bq        -1.4633200516     0.5055054280     1.0475060156
Bq        -1.4402681636     0.3582095237     0.4663240070
Bq        -1.4671620329     0.5300547454     1.1443696836
Bq        -1.4364261823     0.3336602064     0.3694603389
Bq        -1.4710040142     0.5546040627     1.2412333517
Bq        -1.4325842009     0.3091108890     0.2725966708
Bq        -1.4517941076     0.4318574759     0.7569150113
Bq        -1.4546631347     0.5533466252     0.8292486499
Bq        -1.4469791720     0.5042479904     0.6355213138
Bq        -1.4585051160     0.5778959425     0.9261123180
Bq        -1.4431371907     0.4796986730     0.5386576457
Bq        -1.4623470973     0.6024452599     1.0229759861
Bq        -1.4392952094     0.4551493557     0.4417939776
Bq        -1.4661890787     0.6269945773     1.1198396542
Bq        -1.4354532280     0.4306000383     0.3449303095
Bq        -1.4700310600     0.6515438947     1.2167033223
Bq        -1.4316112467     0.4060507209     0.2480666414
Bq        -1.4508211533     0.5287973078     0.7323849819
Bq        -1.4536901805     0.6502864571     0.8047186205
Bq        -1.4460062178     0.6011878224     0.6109912843
Bq        -1.4575321618     0.6748357745     0.9015822886
Bq        -1.4421642365     0.5766385050     0.5141276162
Bq        -1.4613741431     0.6993850919     0.9984459567
Bq        -1.4383222551     0.5520891876     0.4172639482
Bq        -1.4652161244     0.7239344092     1.0953096248
Bq        -1.4344802738     0.5275398702     0.3204002801
Bq        -1.4690581058     0.7484837266     1.1921732929
Bq        -1.4306382925     0.5029905529     0.2235366120
Bq        -1.4498481991     0.6257371397     0.7078549524
Bq        -1.4527172262     0.7472262890     0.7801885911
Bq        -1.4450332636     0.6981276543     0.5864612549
Bq        -1.4565592076     0.7717756064     0.8770522592
Bq        -1.4411912822     0.6735783369     0.4895975868
Bq        -1.4604011889     0.7963249238     0.9739159273
Bq        -1.4373493009     0.6490290195     0.3927339187
Bq        -1.4642431702     0.8208742412     1.0707795954
Bq        -1.4335073196     0.6244797022     0.2958702506
Bq        -1.4680851515     0.8454235585     1.1676432635
Bq        -1.4296653383     0.5999303848     0.1990065826
Bq        -1.4488752449     0.7226769717     0.6833249230
Bq        -1.4517442720     0.8441661210     0.7556585617
Bq        -1.4440603093     0.7950674862     0.5619312255
Bq        -1.4555862533     0.8687154384     0.8525222298
Bq        -1.4402183280     0.7705181689     0.4650675574
Bq        -1.4594282347     0.8932647557     0.9493858978
Bq        -1.4363763467     0.7459688515     0.3682038893
Bq        -1.4632702160     0.9178140731     1.0462495659
Bq        -1.4325343654     0.7214195341     0.2713402212
Bq        -1.4671121973     0.9423633905     1.1431132340
Bq        -1.4286923840     0.6968702167     0.1744765531
Bq        -1.4479022907     0.8196168036     0.6587948936
Bq        -1.4507713178     0.9411059529     0.7311285322
Bq        -1.4430873551     0.8920073182     0.5374011961
Bq        -1.4546132991     0.9656552703     0.8279922003
Bq        -1.4392453738     0.8674580008     0.4405375280
Bq        -1.4584552804     0.9902045877     0.9248558684
Bq        -1.4354033925     0.8429086834     0.3436738599
Bq        -1.4622972618     1.0147539051     1.0217195365
Bq        -1.4315614111     0.8183593660     0.2468101918
Bq        -1.4661392431     1.0393032224     1.1185832046
Bq        -1.4277194298     0.7938100487     0.1499465237
Bq        -1.4469293364     0.9165566355     0.6342648641
Bq        -1.4497983636     1.0380457849     0.7065985028
Bq        -1.4421144009     0.9889471501     0.5128711666
Bq        -1.4536403449     1.0625951022     0.8034621709
Bq        -1.4382724196     0.9643978327     0.4160074985
Bq        -1.4574823262     1.0871444196     0.9003258390
Bq        -1.4344304382     0.9398485154     0.3191438305
Bq        -1.4613243075     1.1116937370     0.9971895071
Bq        -1.4305884569     0.9152991980     0.2222801624
Bq        -1.4651662889     1.1362430544     1.0940531752

1
2
3
4
5
6
7
8
9
10
11
12
13
14
15
16
17
18
19
20
21
22
23
24
25
26
27
28
29
30
31
32
33
34
35
36
37
38
39
40
41
42
43
44
45
46
47
48
49
50
51
52
53
54
55
56
57
58
59
60
61
62
63
64
65
66
67
68
69
70
71
72
73
74
75
76
77
78
79
80
81
82
83
84
85
86
87
88
89
90
91
92
93
94
95
96
97
98
99
100
101
102
103
104
105
106
107
108
109
110
111
112
113
114
115
116
117
118
119
120
121
122
123
124
125
126
127
128
129
130
131
132
133
134
135
136
137
138
139
140
141
142
143
144
145
146
147
148
149
150
151
152
153
154
155
156
157
158
159
160
161
162
163
164
165
166
167
168
169
170
171
172
173
174
175
176
177
178
179
180
181
182
183
184
185
186
187
188
189
190
191
192
193
194
195
196
197
198
199
200
201
202
203
204
205
206
207
208
209
210
211
212
213
214
215
216
217
218
219
220
221
222
223
224
225
226
227
228
229
230
231
232
233
234
235
236

