%nproc=8
%mem=1000MB
# rb3lyp/6-311+g** NMR geom=connectivity

Title

0 1
C    -4.0500558   -0.5771862    0.8136712
H    -5.0263804   -1.0082727    1.0024760
C    -3.9381552    0.6617804    0.2400876
H    -4.8252424    1.2338890   -0.0111295
C    -2.6768410    1.2433246    0.0057578
C    -1.4974121    0.5051527    0.2848253
C    -1.6508332   -0.7338728    0.9404026
H    -0.7713646   -1.2730967    1.2633753
C    -2.8898548   -1.2624035    1.1994307
H    -2.9683706   -2.2124563    1.7152676
C    -2.5773185    2.5963696   -0.4192930
H    -3.4870728    3.1412239   -0.6474055
C    -1.3741895    3.2147896   -0.4364030
H    -1.2997315    4.2742019   -0.6578144
C    -0.1719488    2.4994090   -0.1734588
C    -0.2043917    1.1018437    0.0192689
C     1.0513491    3.2042560   -0.0676222
H     1.0427344    4.2819499   -0.1896997
C     2.1942091    2.5487446    0.2579577
H     3.1168527    3.0912848    0.4334727
C     2.2216473    1.1336562    0.2934990
C     1.0486931    0.3945528    0.0302412
C     3.4483363    0.4614633    0.5573939
H     4.3095794    1.0606054    0.8334846
C     3.5427346   -0.8855926    0.4749463
H     4.4731467   -1.3939704    0.7038822
C     2.4490052   -1.6474447   -0.0196319
C     1.2150704   -1.0057258   -0.3013573
C     0.2531113   -1.7434440   -1.0216591
H    -0.6541356   -1.2535051   -1.3462847
C     0.4494193   -3.0628597   -1.3413779
H    -0.3083162   -3.5944309   -1.9054060
C     1.6251726   -3.7207967   -0.9552541
H     1.7670048   -4.7687404   -1.1927019
C     2.6109872   -3.0144177   -0.3183050
H     3.5525612   -3.4902813   -0.0646367
Bq         0.3913998018     1.3533857035     0.4171031708
Bq         0.3620298869     1.4381407385     0.5264374844
Bq         0.4133876156     1.4665960565     0.3352499362
Bq         0.3363510226     1.4239130794     0.6220312585
Bq         0.4390664799     1.4808237156     0.2396561621
Bq         0.3106721583     1.4096854204     0.7176250326
Bq         0.4647453442     1.4950513746     0.1440623880
Bq         0.2849932940     1.3954577614     0.8132188067
Bq         0.4904242085     1.5092790336     0.0484686140
Bq         0.2593144296     1.3812301024     0.9088125808
Bq         0.5161030729     1.5235066926    -0.0471251601
Bq         0.3877087512     1.4523683975     0.4308437103
Bq         0.3583388364     1.5371234325     0.5401780240
Bq         0.4096965650     1.5655787506     0.3489904758
Bq         0.3326599721     1.5228957735     0.6357717981
Bq         0.4353754294     1.5798064096     0.2533967017
Bq         0.3069811077     1.5086681145     0.7313655722
Bq         0.4610542937     1.5940340686     0.1578029276
Bq         0.2813022434     1.4944404554     0.8269593463
Bq         0.4867331580     1.6082617277     0.0622091535
Bq         0.2556233791     1.4802127964     0.9225531204
Bq         0.5124120223     1.6224893867    -0.0333846206
Bq         0.3840177007     1.5513510915     0.4445842499
Bq         0.3546477859     1.6361061265     0.5539185635
Bq         0.4060055145     1.6645614446     0.3627310154
Bq         0.3289689215     1.6218784675     0.6495123376
Bq         0.4316843788     1.6787891036     0.2671372413
Bq         0.3032900572     1.6076508085     0.7451061117
Bq         0.4573632431     1.6930167627     0.1715434672
Bq         0.2776111929     1.5934231495     0.8406998858
Bq         0.4830421075     1.7072444217     0.0759496931
Bq         0.2519323286     1.5791954904     0.9362936599
Bq         0.5087209718     1.7214720807    -0.0196440810
Bq         0.3803266502     1.6503337856     0.4583247894
Bq         0.3509567353     1.7350888206     0.5676591031
Bq         0.4023144640     1.7635441386     0.3764715549
Bq         0.3252778710     1.7208611616     0.6632528772
Bq         0.4279933283     1.7777717977     0.2808777808
Bq         0.2995990067     1.7066335025     0.7588466513
Bq         0.4536721926     1.7919994567     0.1852840067
Bq         0.2739201423     1.6924058435     0.8544404254
Bq         0.4793510569     1.8062271157     0.0896902326
Bq         0.2482412780     1.6781781845     0.9500341995
Bq         0.5050299213     1.8204547748    -0.0059035415
Bq         0.3766355996     1.7493164796     0.4720653290
Bq         0.3472656848     1.8340715146     0.5813996427
Bq         0.3986234134     1.8625268327     0.3902120945
Bq         0.3215868205     1.8198438556     0.6769934168
Bq         0.4243022777     1.8767544917     0.2946183204
Bq         0.2959079561     1.8056161966     0.7725871909
Bq         0.4499811421     1.8909821507     0.1990245463
Bq         0.2702290918     1.7913885375     0.8681809649
Bq         0.4756600064     1.9052098098     0.1034307722
Bq         0.2445502275     1.7771608785     0.9637747390
Bq         0.5013388707     1.9194374688     0.0078369981
Bq         0.3729445491     1.8482991736     0.4858058686
Bq         0.3435746342     1.9330542087     0.5951401822
Bq         0.3949323629     1.9615095267     0.4039526340
Bq         0.3178957699     1.9188265496     0.6907339563
Bq         0.4206112272     1.9757371857     0.3083588599
Bq         0.2922169056     1.9045988906     0.7863277304
Bq         0.4462900915     1.9899648448     0.2127650858
Bq         0.2665380413     1.8903712316     0.8819215045
Bq         0.4719689559     2.0041925038     0.1171713117
Bq         0.2408591770     1.8761435725     0.9775152786
Bq         0.4976478202     2.0184201628     0.0215775377
Bq         0.3692534986     1.9472818677     0.4995464081
Bq         0.3398835837     2.0320369027     0.6088807218
Bq         0.3912413124     2.0604922207     0.4176931736
Bq         0.3142047194     2.0178092437     0.7044744959
Bq         0.4169201767     2.0747198798     0.3220993995
Bq         0.2885258551     2.0035815846     0.8000682700
Bq         0.4425990410     2.0889475388     0.2265056254
Bq         0.2628469907     1.9893539256     0.8956620441
Bq         0.4682779053     2.1031751978     0.1309118513
Bq         0.2371681264     1.9751262666     0.9912558182
Bq         0.4939567696     2.1174028569     0.0353180772
Bq         0.3655624480     2.0462645617     0.5132869477
Bq         0.3361925332     2.1310195967     0.6226212613
Bq         0.3875502618     2.1594749148     0.4314337131
Bq         0.3105136689     2.1167919377     0.7182150354
Bq         0.4132291261     2.1737025738     0.3358399391
Bq         0.2848348045     2.1025642787     0.8138088095
Bq         0.4389079905     2.1879302328     0.2402461650
Bq         0.2591559402     2.0883366196     0.9094025836
Bq         0.4645868548     2.2021578919     0.1446523909
Bq         0.2334770759     2.0741089606     1.0049963577
Bq         0.4902657191     2.2163855509     0.0490586168
Bq         0.3618713975     2.1452472558     0.5270274872
Bq         0.6173213100    -2.8181151051    -0.0384629348
Bq         0.6686790386    -2.7896597870    -0.2296504830
Bq         0.5916424457    -2.8323427641     0.0571308393
Bq         0.6943579030    -2.7754321280    -0.3252442571
Bq         0.5659635813    -2.8465704231     0.1527246134
Bq         0.7200367673    -2.7612044690    -0.4208380312
Bq         0.5402847170    -2.8607980821     0.2483183875
Bq         0.7457156316    -2.7469768099    -0.5164318053
Bq         0.5146058527    -2.8750257412     0.3439121616
Bq         0.7713944959    -2.7327491509    -0.6120255794
Bq         0.6430001743    -2.8038874460    -0.1340567089
Bq         0.6136302595    -2.7191324110    -0.0247223953
Bq         0.6649879881    -2.6906770930    -0.2159099434
Bq         0.5879513951    -2.7333600701     0.0708713788
Bq         0.6906668524    -2.6764494339    -0.3115037175
Bq         0.5622725308    -2.7475877291     0.1664651529
Bq         0.7163457167    -2.6622217749    -0.4070974916
Bq         0.5365936665    -2.7618153881     0.2620589270
Bq         0.7420245811    -2.6479941159    -0.5026912657
Bq         0.5109148022    -2.7760430471     0.3576527011
Bq         0.7677034454    -2.6337664569    -0.5982850398
Bq         0.6393091238    -2.7049047520    -0.1203161694
Bq         0.6099392089    -2.6201497170    -0.0109818557
Bq         0.6612969376    -2.5916943989    -0.2021694039
Bq         0.5842603446    -2.6343773760     0.0846119184
Bq         0.6869758019    -2.5774667399    -0.2977631780
Bq         0.5585814803    -2.6486050350     0.1802056925
Bq         0.7126546662    -2.5632390809    -0.3933569521
Bq         0.5329026160    -2.6628326941     0.2757994666
Bq         0.7383335305    -2.5490114219    -0.4889507262
Bq         0.5072237516    -2.6770603531     0.3713932407
Bq         0.7640123949    -2.5347837628    -0.5845445003
Bq         0.6356180732    -2.6059220580    -0.1065756298
Bq         0.6062481584    -2.5211670230     0.0027586839
Bq         0.6576058870    -2.4927117049    -0.1884288643
Bq         0.5805692941    -2.5353946820     0.0983524580
Bq         0.6832847514    -2.4784840459    -0.2840226384
Bq         0.5548904297    -2.5496223410     0.1939462320
Bq         0.7089636157    -2.4642563868    -0.3796164125
Bq         0.5292115654    -2.5638500000     0.2895400061
Bq         0.7346424800    -2.4500287278    -0.4752101866
Bq         0.5035327011    -2.5780776591     0.3851337802
Bq         0.7603213443    -2.4358010688    -0.5708039607
Bq         0.6319270227    -2.5069393639    -0.0928350902
Bq         0.6025571079    -2.4221843289     0.0164992234
Bq         0.6539148365    -2.3937290109    -0.1746883248
Bq         0.5768782435    -2.4364119879     0.1120929975
Bq         0.6795937008    -2.3795013518    -0.2702820989
Bq         0.5511993792    -2.4506396470     0.2076867716
Bq         0.7052725651    -2.3652736928    -0.3658758730
Bq         0.5255205149    -2.4648673060     0.3032805457
Bq         0.7309514295    -2.3510460338    -0.4614696471
Bq         0.4998416506    -2.4790949650     0.3988743198
Bq         0.7566302938    -2.3368183748    -0.5570634211
Bq         0.6282359722    -2.4079566699    -0.0790945507
Bq         0.5988660573    -2.3232016349     0.0302397630
Bq         0.6502237860    -2.2947463168    -0.1609477852
Bq         0.5731871930    -2.3374292939     0.1258335371
Bq         0.6759026503    -2.2805186578    -0.2565415593
Bq         0.5475083287    -2.3516569529     0.2214273112
Bq         0.7015815146    -2.2662909988    -0.3521353334
Bq         0.5218294643    -2.3658846120     0.3170210853
Bq         0.7272603789    -2.2520633397    -0.4477291075
Bq         0.4961506000    -2.3801122710     0.4126148594
Bq         0.7529392432    -2.2378356807    -0.5433228816
Bq         0.6245449216    -2.3089739759    -0.0653540111
Bq         0.5951750068    -2.2242189408     0.0439803025
Bq         0.6465327354    -2.1957636228    -0.1472072457
Bq         0.5694961425    -2.2384465999     0.1395740766
Bq         0.6722115997    -2.1815359638    -0.2428010197
Bq         0.5438172781    -2.2526742589     0.2351678507
Bq         0.6978904641    -2.1673083047    -0.3383947938
Bq         0.5181384138    -2.2669019179     0.3307616248
Bq         0.7235693284    -2.1530806457    -0.4339885679
Bq         0.4924595495    -2.2811295770     0.4263553989
Bq         0.7492481927    -2.1388529867    -0.5295823420
Bq         0.6208538711    -2.2099912818    -0.0516134716
Bq         0.5914839562    -2.1252362468     0.0577208421
Bq         0.6428416849    -2.0967809288    -0.1334667061
Bq         0.5658050919    -2.1394639058     0.1533146162
Bq         0.6685205492    -2.0825532697    -0.2290604802
Bq         0.5401262276    -2.1536915649     0.2489083903
Bq         0.6941994135    -2.0683256107    -0.3246542543
Bq         0.5144473633    -2.1679192239     0.3445021644
Bq         0.7198782779    -2.0540979517    -0.4202480284
Bq         0.4887684990    -2.1821468829     0.4400959385
Bq         0.7455571422    -2.0398702926    -0.5158418025
Bq         0.6171628206    -2.1110085878    -0.0378729320
Bq         0.5877929057    -2.0262535528     0.0714613817
Bq         0.6391506344    -1.9977982347    -0.1197261665
Bq         0.5621140414    -2.0404812118     0.1670551557
Bq         0.6648294987    -1.9835705757    -0.2153199406
Bq         0.5364351771    -2.0547088708     0.2626489298
Bq         0.6905083630    -1.9693429167    -0.3109137147
Bq         0.5107563127    -2.0689365299     0.3582427039
Bq         0.7161872273    -1.9551152576    -0.4065074888
Bq         0.4850774484    -2.0831641889     0.4538364780
Bq         0.7418660916    -1.9408875986    -0.5021012629
Bq         0.6134717700    -2.0120258937    -0.0241323924
Bq         0.5841018552    -1.9272708587     0.0852019212
Bq         0.6354595838    -1.8988155407    -0.1059856270
Bq         0.5584229909    -1.9414985178     0.1807956953
Bq         0.6611384481    -1.8845878817    -0.2015794011
Bq         0.5327441265    -1.9557261768     0.2763894694
Bq         0.6868173125    -1.8703602226    -0.2971731752
Bq         0.5070652622    -1.9699538358     0.3719832435
Bq         0.7124961768    -1.8561325636    -0.3927669493
Bq         0.4813863979    -1.9841814949     0.4675770176
Bq         0.7381750411    -1.8419049046    -0.4883607234
Bq         0.6097807195    -1.9130431997    -0.0103918529
Bq         0.5804108046    -1.8282881647     0.0989424608

1
2
3
4
5
6
7
8
9
10
11
12
13
14
15
16
17
18
19
20
21
22
23
24
25
26
27
28
29
30
31
32
33
34
35
36
37
38
39
40
41
42
43
44
45
46
47
48
49
50
51
52
53
54
55
56
57
58
59
60
61
62
63
64
65
66
67
68
69
70
71
72
73
74
75
76
77
78
79
80
81
82
83
84
85
86
87
88
89
90
91
92
93
94
95
96
97
98
99
100
101
102
103
104
105
106
107
108
109
110
111
112
113
114
115
116
117
118
119
120
121
122
123
124
125
126
127
128
129
130
131
132
133
134
135
136
137
138
139
140
141
142
143
144
145
146
147
148
149
150
151
152
153
154
155
156
157
158
159
160
161
162
163
164
165
166
167
168
169
170
171
172
173
174
175
176
177
178
179
180
181
182
183
184
185
186
187
188
189
190
191
192
193
194
195
196
197
198
199
200
201
202
203
204
205
206
207
208
209
210
211
212
213
214
215
216
217
218
219
220
221
222
223
224
225
226
227
228
229
230
231
232
233
234
235
236

