%nproc=8
%mem=1000MB
# rb3lyp/6-311+g** NMR geom=connectivity

Title

0 1
C    -4.0500558   -0.5771862    0.8136712
H    -5.0263804   -1.0082727    1.0024760
C    -3.9381552    0.6617804    0.2400876
H    -4.8252424    1.2338890   -0.0111295
C    -2.6768410    1.2433246    0.0057578
C    -1.4974121    0.5051527    0.2848253
C    -1.6508332   -0.7338728    0.9404026
H    -0.7713646   -1.2730967    1.2633753
C    -2.8898548   -1.2624035    1.1994307
H    -2.9683706   -2.2124563    1.7152676
C    -2.5773185    2.5963696   -0.4192930
H    -3.4870728    3.1412239   -0.6474055
C    -1.3741895    3.2147896   -0.4364030
H    -1.2997315    4.2742019   -0.6578144
C    -0.1719488    2.4994090   -0.1734588
C    -0.2043917    1.1018437    0.0192689
C     1.0513491    3.2042560   -0.0676222
H     1.0427344    4.2819499   -0.1896997
C     2.1942091    2.5487446    0.2579577
H     3.1168527    3.0912848    0.4334727
C     2.2216473    1.1336562    0.2934990
C     1.0486931    0.3945528    0.0302412
C     3.4483363    0.4614633    0.5573939
H     4.3095794    1.0606054    0.8334846
C     3.5427346   -0.8855926    0.4749463
H     4.4731467   -1.3939704    0.7038822
C     2.4490052   -1.6474447   -0.0196319
C     1.2150704   -1.0057258   -0.3013573
C     0.2531113   -1.7434440   -1.0216591
H    -0.6541356   -1.2535051   -1.3462847
C     0.4494193   -3.0628597   -1.3413779
H    -0.3083162   -3.5944309   -1.9054060
C     1.6251726   -3.7207967   -0.9552541
H     1.7670048   -4.7687404   -1.1927019
C     2.6109872   -3.0144177   -0.3183050
H     3.5525612   -3.4902813   -0.0646367
Bq        -2.5547220035     0.8687154384     0.8089263273
Bq        -2.5393540782     0.7705181689     0.4214716549
Bq        -2.5585639848     0.8932647557     0.9057899953
Bq        -2.5355120968     0.7459688515     0.3246079868
Bq        -2.5624059662     0.9178140731     1.0026536634
Bq        -2.5316701155     0.7214195341     0.2277443187
Bq        -2.5662479475     0.9423633905     1.0995173315
Bq        -2.5278281342     0.6968702167     0.1308806506
Bq        -2.5470380408     0.8196168036     0.6151989911
Bq        -2.5499070679     0.9411059529     0.6875326297
Bq        -2.5422231053     0.8920073182     0.4938052936
Bq        -2.5537490493     0.9656552703     0.7843962978
Bq        -2.5383811240     0.8674580008     0.3969416255
Bq        -2.5575910306     0.9902045877     0.8812599659
Bq        -2.5345391426     0.8429086834     0.3000779574
Bq        -2.5614330119     1.0147539051     0.9781236340
Bq        -2.5306971613     0.8183593660     0.2032142893
Bq        -2.5652749933     1.0393032224     1.0749873021
Bq        -2.5268551800     0.7938100487     0.1063506212
Bq        -2.5460650866     0.9165566355     0.5906689616
Bq        -2.5489341137     1.0380457849     0.6630026003
Bq        -2.5412501511     0.9889471501     0.4692752641
Bq        -2.5527760950     1.0625951022     0.7598662684
Bq        -2.5374081697     0.9643978327     0.3724115960
Bq        -2.5566180764     1.0871444196     0.8567299365
Bq        -2.5335661884     0.9398485154     0.2755479279
Bq        -2.5604600577     1.1116937370     0.9535936046
Bq        -2.5297242071     0.9152991980     0.1786842599
Bq        -2.5643020390     1.1362430544     1.0504572727
Bq        -2.5258822257     0.8907498806     0.0818205918
Bq        -2.5450921324     1.0134964675     0.5661389322
Bq        -2.5479611595     1.1349856168     0.6384725709
Bq        -2.5402771968     1.0858869821     0.4447452347
Bq        -2.5518031408     1.1595349342     0.7353362390
Bq        -2.5364352155     1.0613376647     0.3478815666
Bq        -2.5556451221     1.1840842516     0.8321999071
Bq        -2.5325932342     1.0367883473     0.2510178985
Bq        -2.5594871035     1.2086335689     0.9290635751
Bq        -2.5287512528     1.0122390299     0.1541542304
Bq        -2.5633290848     1.2331828863     1.0259272432
Bq        -2.5249092715     0.9876897125     0.0572905623
Bq        -2.5441191782     1.1104362994     0.5416089028
Bq        -2.5469882053     1.2319254487     0.6139425415
Bq        -2.5393042426     1.1828268140     0.4202152053
Bq        -2.5508301866     1.2564747661     0.7108062095
Bq        -2.5354622613     1.1582774966     0.3233515372
Bq        -2.5546721679     1.2810240835     0.8076698776
Bq        -2.5316202799     1.1337281792     0.2264878691
Bq        -2.5585141493     1.3055734009     0.9045335457
Bq        -2.5277782986     1.1091788619     0.1296242010
Bq        -2.5623561306     1.3301227182     1.0013972138
Bq        -2.5239363173     1.0846295445     0.0327605329
Bq        -2.5431462239     1.2073761314     0.5170788734
Bq        -2.5460152510     1.3288652807     0.5894125120
Bq        -2.5383312884     1.2797666459     0.3956851758
Bq        -2.5498572324     1.3534145981     0.6862761801
Bq        -2.5344893071     1.2552173286     0.2988215078
Bq        -2.5536992137     1.3779639154     0.7831398482
Bq        -2.5306473257     1.2306680112     0.2019578397
Bq        -2.5575411950     1.4025132328     0.8800035163
Bq        -2.5268053444     1.2061186938     0.1050941716
Bq        -2.5613831764     1.4270625502     0.9768671844
Bq        -2.5229633631     1.1815693764     0.0082305035
Bq        -2.5421732697     1.3043159633     0.4925488439
Bq        -2.5450422968     1.4258051126     0.5648824826
Bq        -2.5373583342     1.3767064779     0.3711551464
Bq        -2.5488842781     1.4503544300     0.6617461507
Bq        -2.5335163528     1.3521571605     0.2742914783
Bq        -2.5527262595     1.4749037474     0.7586098188
Bq        -2.5296743715     1.3276078431     0.1774278102
Bq        -2.5565682408     1.4994530647     0.8554734869
Bq        -2.5258323902     1.3030585257     0.0805641421
Bq        -2.5604102221     1.5240023821     0.9523371550
Bq        -2.5219904088     1.2785092084    -0.0162995259
Bq        -2.5412003155     1.4012557952     0.4680188145
Bq        -2.5440693426     1.5227449446     0.5403524532
Bq        -2.5363853799     1.4736463098     0.3466251170
Bq        -2.5479113239     1.5472942619     0.6372161213
Bq        -2.5325433986     1.4490969924     0.2497614489
Bq        -2.5517533053     1.5718435793     0.7340797894
Bq        -2.5287014173     1.4245476751     0.1528977808
Bq        -2.5555952866     1.5963928967     0.8309434574
Bq        -2.5248594359     1.3999983577     0.0560341127
Bq        -2.5594372679     1.6209422141     0.9278071255
Bq        -2.5210174546     1.3754490403    -0.0408295554
Bq        -2.5402273613     1.4981956272     0.4434887851
Bq        -2.5430963884     1.6196847765     0.5158224237
Bq        -2.5354124257     1.5705861417     0.3220950876
Bq        -2.5469383697     1.6442340939     0.6126860918
Bq        -2.5315704444     1.5460368244     0.2252314195
Bq        -2.5507803510     1.6687834113     0.7095497599
Bq        -2.5277284631     1.5214875070     0.1283677514
Bq        -2.5546223324     1.6933327286     0.8064134280
Bq        -2.5238864817     1.4969381896     0.0315040833
Bq        -2.5584643137     1.7178820460     0.9032770961
Bq        -2.5200445004     1.4723888722    -0.0653595848
Bq        -2.5392544070     1.5951354591     0.4189587557
Bq        -2.5421234341     1.7166246084     0.4912923943
Bq        -2.5344394715     1.6675259737     0.2975650581
Bq        -2.5459654155     1.7411739258     0.5881560624
Bq        -2.5305974902     1.6429766563     0.2007013900
Bq        -2.5498073968     1.7657232432     0.6850197305
Bq        -2.5267555088     1.6184273389     0.1038377220
Bq        -2.5536493781     1.7902725606     0.7818833986
Bq        -2.5229135275     1.5938780216     0.0069740539
Bq        -2.5574913595     1.8148218779     0.8787470667
Bq        -2.5190715462     1.5693287042    -0.0898896142
Bq        -2.5382814528     1.6920752911     0.3944287262
Bq        -2.5411504799     1.8135644404     0.4667623649
Bq        -2.5334665173     1.7644658056     0.2730350287
Bq        -2.5449924612     1.8381137578     0.5636260330
Bq        -2.5296245359     1.7399164882     0.1761713606
Bq        -2.5488344426     1.8626630751     0.6604897011
Bq        -2.5257825546     1.7153671709     0.0793076925
Bq        -2.5526764239     1.8872123925     0.7573533692
Bq        -2.5219405733     1.6908178535    -0.0175559756
Bq        -2.5565184052     1.9117617099     0.8542170372
Bq        -2.5180985919     1.6662685361    -0.1144196437
Bq        -2.5373084986     1.7890151230     0.3698986968
Bq        -2.5401775257     1.9105042723     0.4422323355
Bq        -2.5324935630     1.8614056376     0.2485049993
Bq        -2.5440195070     1.9350535897     0.5390960036
Bq        -2.5286515817     1.8368563202     0.1516413312
Bq        -2.5478614884     1.9596029071     0.6359596716
Bq        -2.5248096004     1.8123070028     0.0547776631
Bq        -2.5517034697     1.9841522244     0.7328233397
Bq        -2.5209676190     1.7877576854    -0.0420860050
Bq        -2.5555454510     2.0087015418     0.8296870078
Bq        -2.5171256377     1.7632083681    -0.1389496731
Bq        -2.5363355444     1.8859549549     0.3453686674
Bq        -2.5392045715     2.0074441043     0.4177023060
Bq        -2.5315206088     1.9583454695     0.2239749699
Bq        -2.5430465528     2.0319934216     0.5145659741
Bq        -2.5276786275     1.9337961521     0.1271113018
Bq        -2.5468885341     2.0565427390     0.6114296422
Bq        -2.5238366462     1.9092468348     0.0302476337
Bq        -2.5507305155     2.0810920564     0.7082933103
Bq        -2.5199946648     1.8846975174    -0.0666160344
Bq        -2.5545724968     2.1056413738     0.8051569784
Bq        -2.5161526835     1.8601482000    -0.1634797025
Bq        -2.5353625901     1.9828947869     0.3208386379
Bq        -2.5382316172     2.1043839362     0.3931722766
Bq        -2.5305476546     2.0552853014     0.1994449404
Bq        -2.5420735986     2.1289332536     0.4900359447
Bq        -2.5267056733     2.0307359841     0.1025812723
Bq        -2.5459155799     2.1534825709     0.5868996128
Bq        -2.5228636919     2.0061866667     0.0057176042
Bq        -2.5497575612     2.1780318883     0.6837632809
Bq        -2.5190217106     1.9816373493    -0.0911460638
Bq        -2.5535995426     2.2025812057     0.7806269490
Bq        -2.5151797293     1.9570880319    -0.1880097319
Bq        -2.5343896359     2.0798346188     0.2963086085
Bq        -2.5372586630     2.2013237681     0.3686422472
Bq        -2.5295747004     2.1522251334     0.1749149110
Bq        -2.5411006444     2.2258730855     0.4655059153
Bq        -2.5257327190     2.1276758160     0.0780512429
Bq        -2.5449426257     2.2504224029     0.5623695834
Bq        -2.5218907377     2.1031264986    -0.0188124252
Bq        -2.5487846070     2.2749717203     0.6592332515
Bq        -2.5180487564     2.0785771813    -0.1156760933
Bq        -2.5526265883     2.2995210376     0.7560969195
Bq        -2.5142067750     2.0540278639    -0.2125397614
Bq        -2.5334166817     2.1767744508     0.2717785791
Bq        -2.5362857088     2.2982636001     0.3441122178
Bq        -2.5286017461     2.2491649653     0.1503848816
Bq        -2.5401276901     2.3228129174     0.4409758858
Bq        -2.5247597648     2.2246156479     0.0535212135
Bq        -2.5439696715     2.3473622348     0.5378395539
Bq        -2.5209177835     2.2000663306    -0.0433424546
Bq        -2.5478116528     2.3719115522     0.6347032220
Bq        -2.5170758022     2.1755170132    -0.1402061227
Bq        -2.5516536341     2.3964608696     0.7315668901
Bq        -2.5132338208     2.1509676958    -0.2370697908
Bq        -2.5324437275     2.2737142827     0.2472485497
Bq        -2.5353127546     2.3952034320     0.3195821883
Bq        -2.5276287919     2.3461047973     0.1258548521
Bq        -2.5391547359     2.4197527494     0.4164458564
Bq        -2.5237868106     2.3215554799     0.0289911841
Bq        -2.5429967172     2.4443020668     0.5133095245
Bq        -2.5199448293     2.2970061625    -0.0678724840
Bq        -2.5468386986     2.4688513841     0.6101731926
Bq        -2.5161028479     2.2724568451    -0.1647361521
Bq        -2.5506806799     2.4934007015     0.7070368607
Bq        -2.5122608666     2.2479075278    -0.2615998202
Bq        -2.5314707732     2.3706541146     0.2227185202
Bq        -2.5343398003     2.4921432640     0.2950521589
Bq        -2.5266558377     2.4430446292     0.1013248227
Bq        -2.5381817817     2.5166925813     0.3919158270
Bq        -2.5228138564     2.4184953118     0.0044611546
Bq        -2.5420237630     2.5412418987     0.4887794951
Bq        -2.5189718750     2.3939459944    -0.0924025135
Bq        -2.5458657443     2.5657912161     0.5856431632
Bq        -2.5151298937     2.3693966771    -0.1892661816
Bq        -2.5497077257     2.5903405335     0.6825068313
Bq        -2.5112879124     2.3448473597    -0.2861298496
Bq        -2.5304978190     2.4675939466     0.1981884908
Bq        -2.5333668461     2.5890830959     0.2705221295
Bq        -2.5256828835     2.5399844611     0.0767947933
Bq        -2.5372088275     2.6136324133     0.3673857976
Bq        -2.5218409021     2.5154351438    -0.0200688748

1
2
3
4
5
6
7
8
9
10
11
12
13
14
15
16
17
18
19
20
21
22
23
24
25
26
27
28
29
30
31
32
33
34
35
36
37
38
39
40
41
42
43
44
45
46
47
48
49
50
51
52
53
54
55
56
57
58
59
60
61
62
63
64
65
66
67
68
69
70
71
72
73
74
75
76
77
78
79
80
81
82
83
84
85
86
87
88
89
90
91
92
93
94
95
96
97
98
99
100
101
102
103
104
105
106
107
108
109
110
111
112
113
114
115
116
117
118
119
120
121
122
123
124
125
126
127
128
129
130
131
132
133
134
135
136
137
138
139
140
141
142
143
144
145
146
147
148
149
150
151
152
153
154
155
156
157
158
159
160
161
162
163
164
165
166
167
168
169
170
171
172
173
174
175
176
177
178
179
180
181
182
183
184
185
186
187
188
189
190
191
192
193
194
195
196
197
198
199
200
201
202
203
204
205
206
207
208
209
210
211
212
213
214
215
216
217
218
219
220
221
222
223
224
225
226
227
228
229
230
231
232
233
234
235
236

