%nproc=8
%mem=1000MB
# rb3lyp/6-311+g** NMR geom=connectivity

Title

0 1
C    -4.0500558   -0.5771862    0.8136712
H    -5.0263804   -1.0082727    1.0024760
C    -3.9381552    0.6617804    0.2400876
H    -4.8252424    1.2338890   -0.0111295
C    -2.6768410    1.2433246    0.0057578
C    -1.4974121    0.5051527    0.2848253
C    -1.6508332   -0.7338728    0.9404026
H    -0.7713646   -1.2730967    1.2633753
C    -2.8898548   -1.2624035    1.1994307
H    -2.9683706   -2.2124563    1.7152676
C    -2.5773185    2.5963696   -0.4192930
H    -3.4870728    3.1412239   -0.6474055
C    -1.3741895    3.2147896   -0.4364030
H    -1.2997315    4.2742019   -0.6578144
C    -0.1719488    2.4994090   -0.1734588
C    -0.2043917    1.1018437    0.0192689
C     1.0513491    3.2042560   -0.0676222
H     1.0427344    4.2819499   -0.1896997
C     2.1942091    2.5487446    0.2579577
H     3.1168527    3.0912848    0.4334727
C     2.2216473    1.1336562    0.2934990
C     1.0486931    0.3945528    0.0302412
C     3.4483363    0.4614633    0.5573939
H     4.3095794    1.0606054    0.8334846
C     3.5427346   -0.8855926    0.4749463
H     4.4731467   -1.3939704    0.7038822
C     2.4490052   -1.6474447   -0.0196319
C     1.2150704   -1.0057258   -0.3013573
C     0.2531113   -1.7434440   -1.0216591
H    -0.6541356   -1.2535051   -1.3462847
C     0.4494193   -3.0628597   -1.3413779
H    -0.3083162   -3.5944309   -1.9054060
C     1.6251726   -3.7207967   -0.9552541
H     1.7670048   -4.7687404   -1.1927019
C     2.6109872   -3.0144177   -0.3183050
H     3.5525612   -3.4902813   -0.0646367
Bq         2.5346910449     0.1513657160     0.9185516695
Bq         2.5860487736     0.1798210341     0.7273641213
Bq         2.5090121806     0.1371380570     1.0141454436
Bq         2.6117276379     0.1940486931     0.6317703472
Bq         2.4833333163     0.1229103980     1.1097392177
Bq         2.6374065022     0.2082763521     0.5361765731
Bq         2.4576544519     0.1086827389     1.2053329918
Bq         2.6630853665     0.2225040112     0.4405827990
Bq         2.4319755876     0.0944550799     1.3009267659
Bq         2.6887642308     0.2367316702     0.3449890250
Bq         2.5603699092     0.1655933750     0.8229578954
Bq         2.5309999944     0.2503484100     0.9322922091
Bq         2.5823577230     0.2788037281     0.7411046609
Bq         2.5053211300     0.2361207510     1.0278859832
Bq         2.6080365873     0.2930313871     0.6455108868
Bq         2.4796422657     0.2218930920     1.1234797573
Bq         2.6337154517     0.3072590462     0.5499171127
Bq         2.4539634014     0.2076654330     1.2190735314
Bq         2.6593943160     0.3214867052     0.4543233386
Bq         2.4282845371     0.1934377739     1.3146673055
Bq         2.6850731803     0.3357143642     0.3587295645
Bq         2.5566788587     0.2645760691     0.8366984350
Bq         2.5273089438     0.3493311041     0.9460327486
Bq         2.5786666725     0.3777864221     0.7548452004
Bq         2.5016300795     0.3351034451     1.0416265227
Bq         2.6043455368     0.3920140812     0.6592514264
Bq         2.4759512152     0.3208757860     1.1372202968
Bq         2.6300244011     0.4062417402     0.5636576523
Bq         2.4502723509     0.3066481270     1.2328140709
Bq         2.6557032654     0.4204693992     0.4680638782
Bq         2.4245934865     0.2924204680     1.3284078450
Bq         2.6813821298     0.4346970583     0.3724701041
Bq         2.5529878082     0.3635587631     0.8504389745
Bq         2.5236178933     0.4483137981     0.9597732882
Bq         2.5749756219     0.4767691162     0.7685857400
Bq         2.4979390290     0.4340861391     1.0553670623
Bq         2.6006544863     0.4909967752     0.6729919659
Bq         2.4722601647     0.4198584801     1.1509608364
Bq         2.6263333506     0.5052244342     0.5773981918
Bq         2.4465813003     0.4056308210     1.2465546105
Bq         2.6520122149     0.5194520933     0.4818044177
Bq         2.4209024360     0.3914031620     1.3421483846
Bq         2.6776910792     0.5336797523     0.3862106436
Bq         2.5492967576     0.4625414571     0.8641795141
Bq         2.5199268428     0.5472964922     0.9735138278
Bq         2.5712845714     0.5757518102     0.7823262796
Bq         2.4942479784     0.5330688331     1.0691076018
Bq         2.5969634357     0.5899794692     0.6867325055
Bq         2.4685691141     0.5188411741     1.1647013759
Bq         2.6226423001     0.6042071283     0.5911387314
Bq         2.4428902498     0.5046135151     1.2602951500
Bq         2.6483211644     0.6184347873     0.4955449573
Bq         2.4172113855     0.4903858560     1.3558889241
Bq         2.6740000287     0.6326624463     0.3999511832
Bq         2.5456057071     0.5615241512     0.8779200537
Bq         2.5162357922     0.6462791862     0.9872543673
Bq         2.5675935209     0.6747345042     0.7960668191
Bq         2.4905569279     0.6320515272     1.0828481414
Bq         2.5932723852     0.6889621633     0.7004730450
Bq         2.4648780636     0.6178238681     1.1784419155
Bq         2.6189512495     0.7031898223     0.6048792709
Bq         2.4391991993     0.6035962091     1.2740356896
Bq         2.6446301138     0.7174174813     0.5092854968
Bq         2.4135203349     0.5893685501     1.3696294637
Bq         2.6703089782     0.7316451404     0.4136917227
Bq         2.5419146566     0.6605068452     0.8916605932
Bq         2.5125447417     0.7452618802     1.0009949069
Bq         2.5639024703     0.7737171983     0.8098073587
Bq         2.4868658774     0.7310342212     1.0965886810
Bq         2.5895813347     0.7879448573     0.7142135846
Bq         2.4611870130     0.7168065622     1.1921824551
Bq         2.6152601990     0.8021725163     0.6186198105
Bq         2.4355081487     0.7025789031     1.2877762292
Bq         2.6409390633     0.8164001754     0.5230260364
Bq         2.4098292844     0.6883512441     1.3833700033
Bq         2.6666179276     0.8306278344     0.4274322623
Bq         2.5382236060     0.7594895393     0.9054011328
Bq         2.5088536912     0.8442445743     1.0147354464
Bq         2.5602114198     0.8726998923     0.8235478982
Bq         2.4831748268     0.8300169152     1.1103292205
Bq         2.5858902841     0.8869275513     0.7279541241
Bq         2.4574959625     0.8157892562     1.2059229946
Bq         2.6115691484     0.9011552104     0.6323603501
Bq         2.4318170982     0.8015615972     1.3015167687
Bq         2.6372480128     0.9153828694     0.5367665760
Bq         2.4061382339     0.7873339381     1.3971105428
Bq         2.6629268771     0.9296105284     0.4411728019
Bq         2.5345325555     0.8584722333     0.9191416723
Bq         2.5051626406     0.9432272683     1.0284759860
Bq         2.5565203693     0.9716825864     0.8372884378
Bq         2.4794837763     0.9289996093     1.1240697601
Bq         2.5821992336     0.9859102454     0.7416946637
Bq         2.4538049120     0.9147719502     1.2196635342
Bq         2.6078780979     1.0001379044     0.6461008896
Bq         2.4281260477     0.9005442912     1.3152573083
Bq         2.6335569622     1.0143655634     0.5505071155
Bq         2.4024471833     0.8863166322     1.4108510824
Bq         2.6592358266     1.0285932225     0.4549133414
Bq         2.5308415049     0.9574549273     0.9328822119
Bq         2.5014715901     1.0422099623     1.0422165255
Bq         2.5528293187     1.0706652804     0.8510289774
Bq         2.4757927258     1.0279823033     1.1378102996
Bq         2.5785081831     1.0848929394     0.7554352033
Bq         2.4501138614     1.0137546443     1.2334040737
Bq         2.6041870474     1.0991205984     0.6598414292
Bq         2.4244349971     0.9995269852     1.3289978478
Bq         2.6298659117     1.1133482575     0.5642476551
Bq         2.3987561328     0.9852993262     1.4245916219
Bq         2.6555447760     1.1275759165     0.4686538810
Bq         2.5271504544     1.0564376214     0.9466227515
Bq         2.4977805396     1.1411926564     1.0559570651
Bq         2.5491382682     1.1696479744     0.8647695169
Bq         2.4721016752     1.1269649973     1.1515508392
Bq         2.5748171325     1.1838756335     0.7691757428
Bq         2.4464228109     1.1127373383     1.2471446133
Bq         2.6004959968     1.1981032925     0.6735819687
Bq         2.4207439466     1.0985096793     1.3427383874
Bq         2.6261748612     1.2123309515     0.5779881946
Bq         2.3950650823     1.0842820203     1.4383321615
Bq         2.6518537255     1.2265586105     0.4823944205
Bq         2.5234594039     1.1554203154     0.9603632910
Bq         2.4940894890     1.2401753504     1.0696976047
Bq         2.5454472177     1.2686306685     0.8785100565
Bq         2.4684106247     1.2259476914     1.1652913788
Bq         2.5711260820     1.2828583275     0.7829162824
Bq         2.4427317604     1.2117200323     1.2608851529
Bq         2.5968049463     1.2970859865     0.6873225083
Bq         2.4170528961     1.1974923733     1.3564789270
Bq         2.6224838106     1.3113136455     0.5917287342
Bq         2.3913740317     1.1832647143     1.4520727010
Bq         2.6481626750     1.3255413046     0.4961349601
Bq         2.5197683533     1.2544030094     0.9741038306
Bq         2.4903984385     1.3391580444     1.0834381442
Bq         2.5417561671     1.3676133625     0.8922505960
Bq         2.4647195742     1.3249303854     1.1790319183
Bq         2.5674350315     1.3818410215     0.7966568219
Bq         2.4390407098     1.3107027264     1.2746256924
Bq         2.5931138958     1.3960686806     0.7010630478
Bq         2.4133618455     1.2964750674     1.3702194665
Bq         2.6187927601     1.4102963396     0.6054692738
Bq         2.3876829812     1.2822474083     1.4658132406
Bq         2.6444716244     1.4245239986     0.5098754997
Bq         2.5160773028     1.3533857035     0.9878443701
Bq         2.4867073879     1.4381407385     1.0971786838
Bq         2.5380651166     1.4665960565     0.9059911356
Bq         2.4610285236     1.4239130794     1.1927724579
Bq         2.5637439809     1.4808237156     0.8103973615
Bq         2.4353496593     1.4096854204     1.2883662320
Bq         2.5894228452     1.4950513746     0.7148035874
Bq         2.4096707950     1.3954577614     1.3839600061
Bq         2.6151017096     1.5092790336     0.6192098133
Bq         2.3839919307     1.3812301024     1.4795537802
Bq         2.6407805739     1.5235066926     0.5236160392
Bq         2.5123862523     1.4523683975     1.0015849097
Bq         2.4830163374     1.5371234325     1.1109192233
Bq         2.5343740661     1.5655787506     0.9197316752
Bq         2.4573374731     1.5228957735     1.2065129974
Bq         2.5600529304     1.5798064096     0.8241379011
Bq         2.4316586088     1.5086681145     1.3021067715
Bq         2.5857317947     1.5940340686     0.7285441270
Bq         2.4059797444     1.4944404554     1.3977005456
Bq         2.6114106590     1.6082617277     0.6329503529
Bq         2.3803008801     1.4802127964     1.4932943197
Bq         2.6370895233     1.6224893867     0.5373565788
Bq         2.5086952017     1.5513510915     1.0153254492
Bq         2.4793252869     1.6361061265     1.1246597629
Bq         2.5306830155     1.6645614446     0.9334722147
Bq         2.4536464226     1.6218784675     1.2202535370
Bq         2.5563618798     1.6787891036     0.8378784406
Bq         2.4279675582     1.6076508085     1.3158473111
Bq         2.5820407442     1.6930167627     0.7422846665
Bq         2.4022886939     1.5934231495     1.4114410852
Bq         2.6077196085     1.7072444217     0.6466908924
Bq         2.3766098296     1.5791954904     1.5070348593
Bq         2.6333984728     1.7214720807     0.5510971183
Bq         2.5050041512     1.6503337856     1.0290659888
Bq         2.4756342363     1.7350888206     1.1384003025
Bq         2.5269919650     1.7635441386     0.9472127543
Bq         2.4499553720     1.7208611616     1.2339940766
Bq         2.5526708293     1.7777717977     0.8516189802
Bq         2.4242765077     1.7066335025     1.3295878507
Bq         2.5783496936     1.7919994567     0.7560252061
Bq         2.3985976434     1.6924058435     1.4251816247
Bq         2.6040285580     1.8062271157     0.6604314320
Bq         2.3729187791     1.6781781845     1.5207753988
Bq         2.6297074223     1.8204547748     0.5648376579
Bq         2.5013131007     1.7493164796     1.0428065284
Bq         2.4719431858     1.8340715146     1.1521408420
Bq         2.5233009145     1.8625268327     0.9609532938
Bq         2.4462643215     1.8198438556     1.2477346161
Bq         2.5489797788     1.8767544917     0.8653595197
Bq         2.4205854572     1.8056161966     1.3433283902
Bq         2.5746586431     1.8909821507     0.7697657456
Bq         2.3949065928     1.7913885375     1.4389221643
Bq         2.6003375074     1.9052098098     0.6741719715
Bq         2.3692277285     1.7771608785     1.5345159384
Bq         2.6260163717     1.9194374688     0.5785781975
Bq         2.4976220501     1.8482991736     1.0565470679
Bq         2.4682521353     1.9330542087     1.1658813816
Bq         2.5196098639     1.9615095267     0.9746938334

1
2
3
4
5
6
7
8
9
10
11
12
13
14
15
16
17
18
19
20
21
22
23
24
25
26
27
28
29
30
31
32
33
34
35
36
37
38
39
40
41
42
43
44
45
46
47
48
49
50
51
52
53
54
55
56
57
58
59
60
61
62
63
64
65
66
67
68
69
70
71
72
73
74
75
76
77
78
79
80
81
82
83
84
85
86
87
88
89
90
91
92
93
94
95
96
97
98
99
100
101
102
103
104
105
106
107
108
109
110
111
112
113
114
115
116
117
118
119
120
121
122
123
124
125
126
127
128
129
130
131
132
133
134
135
136
137
138
139
140
141
142
143
144
145
146
147
148
149
150
151
152
153
154
155
156
157
158
159
160
161
162
163
164
165
166
167
168
169
170
171
172
173
174
175
176
177
178
179
180
181
182
183
184
185
186
187
188
189
190
191
192
193
194
195
196
197
198
199
200
201
202
203
204
205
206
207
208
209
210
211
212
213
214
215
216
217
218
219
220
221
222
223
224
225
226
227
228
229
230
231
232
233
234
235
236

