%nproc=8
%mem=1000MB
# rb3lyp/6-311+g** NMR geom=connectivity

Title

0 1
C    -4.0500558   -0.5771862    0.8136712
H    -5.0263804   -1.0082727    1.0024760
C    -3.9381552    0.6617804    0.2400876
H    -4.8252424    1.2338890   -0.0111295
C    -2.6768410    1.2433246    0.0057578
C    -1.4974121    0.5051527    0.2848253
C    -1.6508332   -0.7338728    0.9404026
H    -0.7713646   -1.2730967    1.2633753
C    -2.8898548   -1.2624035    1.1994307
H    -2.9683706   -2.2124563    1.7152676
C    -2.5773185    2.5963696   -0.4192930
H    -3.4870728    3.1412239   -0.6474055
C    -1.3741895    3.2147896   -0.4364030
H    -1.2997315    4.2742019   -0.6578144
C    -0.1719488    2.4994090   -0.1734588
C    -0.2043917    1.1018437    0.0192689
C     1.0513491    3.2042560   -0.0676222
H     1.0427344    4.2819499   -0.1896997
C     2.1942091    2.5487446    0.2579577
H     3.1168527    3.0912848    0.4334727
C     2.2216473    1.1336562    0.2934990
C     1.0486931    0.3945528    0.0302412
C     3.4483363    0.4614633    0.5573939
H     4.3095794    1.0606054    0.8334846
C     3.5427346   -0.8855926    0.4749463
H     4.4731467   -1.3939704    0.7038822
C     2.4490052   -1.6474447   -0.0196319
C     1.2150704   -1.0057258   -0.3013573
C     0.2531113   -1.7434440   -1.0216591
H    -0.6541356   -1.2535051   -1.3462847
C     0.4494193   -3.0628597   -1.3413779
H    -0.3083162   -3.5944309   -1.9054060
C     1.6251726   -3.7207967   -0.9552541
H     1.7670048   -4.7687404   -1.1927019
C     2.6109872   -3.0144177   -0.3183050
H     3.5525612   -3.4902813   -0.0646367
Bq         4.1598712636    -1.7713775286     0.6505075088
Bq         3.9801192133    -1.8709711418     1.3196639275
Bq         4.1855501279    -1.7571498696     0.5549137347
Bq         3.9544403490    -1.8851988008     1.4152577016
Bq         4.2112289922    -1.7429222105     0.4593199606
Bq         4.0828346706    -1.8140605057     0.9372888311
Bq         4.0534647558    -1.7293054707     1.0466231447
Bq         4.1048224844    -1.7008501526     0.8554355965
Bq         4.0277858915    -1.7435331297     1.1422169188
Bq         4.1305013487    -1.6866224936     0.7598418225
Bq         4.0021070271    -1.7577607887     1.2378106929
Bq         4.1561802131    -1.6723948346     0.6642480484
Bq         3.9764281628    -1.7719884478     1.3334044670
Bq         4.1818590774    -1.6581671755     0.5686542743
Bq         3.9507492985    -1.7862161068     1.4289982411
Bq         4.2075379417    -1.6439395165     0.4730605002
Bq         4.0791436201    -1.7150778116     0.9510293706
Bq         4.0497737052    -1.6303227766     1.0603636843
Bq         4.1011314339    -1.6018674586     0.8691761361
Bq         4.0240948409    -1.6445504357     1.1559574584
Bq         4.1268102982    -1.5876397995     0.7735823620
Bq         3.9984159766    -1.6587780947     1.2515512325
Bq         4.1524891625    -1.5734121405     0.6779885879
Bq         3.9727371123    -1.6730057537     1.3471450066
Bq         4.1781680269    -1.5591844815     0.5823948138
Bq         3.9470582480    -1.6872334127     1.4427387807
Bq         4.2038468912    -1.5449568225     0.4868010397
Bq         4.0754525696    -1.6160951176     0.9647699102
Bq         4.0460826547    -1.5313400826     1.0741042239
Bq         4.0974403834    -1.5028847645     0.8829166757
Bq         4.0204037904    -1.5455677416     1.1696979979
Bq         4.1231192477    -1.4886571055     0.7873229016
Bq         3.9947249261    -1.5597954007     1.2652917720
Bq         4.1487981120    -1.4744294465     0.6917291275
Bq         3.9690460617    -1.5740230597     1.3608855461
Bq         4.1744769763    -1.4602017875     0.5961353534
Bq         3.9433671974    -1.5882507187     1.4564793202
Bq         4.2001558406    -1.4459741284     0.5005415793
Bq         4.0717615190    -1.5171124236     0.9785104498
Bq         4.0423916042    -1.4323573886     1.0878447634
Bq         4.0937493328    -1.4039020705     0.8966572152
Bq         4.0167127398    -1.4465850476     1.1834385375
Bq         4.1194281971    -1.3896744115     0.8010634411
Bq         3.9910338755    -1.4608127066     1.2790323116
Bq         4.1451070615    -1.3754467524     0.7054696670
Bq         3.9653550112    -1.4750403656     1.3746260857
Bq         4.1707859258    -1.3612190934     0.6098758929
Bq         3.9396761469    -1.4892680247     1.4702198598
Bq         4.1964647901    -1.3469914344     0.5142821188
Bq         4.0680704685    -1.4181297295     0.9922509893
Bq         4.0387005536    -1.3333746945     1.1015853030
Bq         4.0900582823    -1.3049193765     0.9103977548
Bq         4.0130216893    -1.3476023536     1.1971790771
Bq         4.1157371466    -1.2906917174     0.8148039807
Bq         3.9873428250    -1.3618300126     1.2927728512
Bq         4.1414160109    -1.2764640584     0.7192102066
Bq         3.9616639607    -1.3760576716     1.3883666253
Bq         4.1670948752    -1.2622363994     0.6236164325
Bq         3.9359850963    -1.3902853306     1.4839603993
Bq         4.1927737396    -1.2480087404     0.5280226584
Bq         4.0643794180    -1.3191470355     1.0059915289
Bq         4.0350095031    -1.2343920005     1.1153258425
Bq         4.0863672317    -1.2059366824     0.9241382943
Bq         4.0093306388    -1.2486196595     1.2109196166
Bq         4.1120460961    -1.1917090234     0.8285445202
Bq         3.9836517745    -1.2628473185     1.3065133907
Bq         4.1377249604    -1.1774813644     0.7329507462
Bq         3.9579729101    -1.2770749776     1.4021071648
Bq         4.1634038247    -1.1632537054     0.6373569721
Bq         3.9322940458    -1.2913026366     1.4977009389
Bq         4.1890826890    -1.1490260463     0.5417631980
Bq         4.0606883674    -1.2201643415     1.0197320684
Bq         4.0313184526    -1.1354093065     1.1290663821
Bq         4.0826761812    -1.1069539884     0.9378788339
Bq         4.0056395882    -1.1496369655     1.2246601562
Bq         4.1083550455    -1.0927263294     0.8422850598
Bq         3.9799607239    -1.1638646245     1.3202539303
Bq         4.1340339099    -1.0784986703     0.7466912857
Bq         3.9542818596    -1.1780922835     1.4158477044
Bq         4.1597127742    -1.0642710113     0.6510975116
Bq         3.9286029953    -1.1923199426     1.5114414785
Bq         4.1853916385    -1.0500433523     0.5555037375
Bq         4.0569973169    -1.1211816474     1.0334726080
Bq         4.0276274020    -1.0364266124     1.1428069216
Bq         4.0789851307    -1.0079712944     0.9516193735
Bq         4.0019485377    -1.0506542714     1.2384006957
Bq         4.1046639950    -0.9937436353     0.8560255994
Bq         3.9762696734    -1.0648819305     1.3339944698
Bq         4.1303428593    -0.9795159763     0.7604318253
Bq         3.9505908091    -1.0791095895     1.4295882439
Bq         4.1560217236    -0.9652883173     0.6648380512
Bq         3.9249119447    -1.0933372485     1.5251820180
Bq         4.1817005880    -0.9510606583     0.5692442771
Bq         4.0533062664    -1.0221989534     1.0472131476
Bq         4.0239363515    -0.9374439184     1.1565474612
Bq         4.0752940801    -0.9089886003     0.9653599130
Bq         3.9982574872    -0.9516715774     1.2521412353
Bq         4.1009729445    -0.8947609413     0.8697661389
Bq         3.9725786228    -0.9658992364     1.3477350094
Bq         4.1266518088    -0.8805332823     0.7741723648
Bq         3.9468997585    -0.9801268955     1.4433287835
Bq         4.1523306731    -0.8663056232     0.6785785907
Bq         3.9212208942    -0.9943545545     1.5389225576
Bq         4.1780095374    -0.8520779642     0.5829848166
Bq         4.0496152158    -0.9232162594     1.0609536871
Bq         4.0202453010    -0.8384612243     1.1702880008
Bq         4.0716030296    -0.8100059063     0.9791004526
Bq         3.9945664366    -0.8526888834     1.2658817749
Bq         4.0972818939    -0.7957782473     0.8835066785
Bq         3.9688875723    -0.8669165424     1.3614755490
Bq         4.1229607582    -0.7815505882     0.7879129044
Bq         3.9432087080    -0.8811442014     1.4570693230
Bq         4.1486396226    -0.7673229292     0.6923191303
Bq         3.9175298437    -0.8953718605     1.5526630971
Bq         4.1743184869    -0.7530952702     0.5967253562
Bq         4.0459241653    -0.8242335653     1.0746942267
Bq         4.0165542504    -0.7394785303     1.1840285403
Bq         4.0679119791    -0.7110232123     0.9928409921
Bq         3.9908753861    -0.7537061893     1.2796223144
Bq         4.0935908434    -0.6967955532     0.8972472180
Bq         3.9651965218    -0.7679338484     1.3752160885
Bq         4.1192697077    -0.6825678942     0.8016534439
Bq         3.9395176575    -0.7821615074     1.4708098626
Bq         4.1449485720    -0.6683402352     0.7060596698
Bq         3.9138387931    -0.7963891664     1.5664036367
Bq         4.1706274364    -0.6541125761     0.6104658958
Bq         4.0422331147    -0.7252508713     1.0884347662
Bq         4.0128631999    -0.6404958363     1.1977690799
Bq         4.0642209285    -0.6120405182     1.0065815317
Bq         3.9871843356    -0.6547234953     1.2933628540
Bq         4.0898997929    -0.5978128592     0.9109877576
Bq         3.9615054712    -0.6689511543     1.3889566281
Bq         4.1155786572    -0.5835852002     0.8153939835
Bq         3.9358266069    -0.6831788134     1.4845504022
Bq         4.1412575215    -0.5693575411     0.7198002094
Bq         3.9101477426    -0.6974064724     1.5801441763
Bq         4.1669363858    -0.5551298821     0.6242064353
Bq         4.0385420642    -0.6262681772     1.1021753058
Bq         4.0091721494    -0.5415131422     1.2115096194
Bq         4.0605298780    -0.5130578242     1.0203220713
Bq         3.9834932850    -0.5557408013     1.3071033935
Bq         4.0862087423    -0.4988301652     0.9247282972
Bq         3.9578144207    -0.5699684603     1.4026971676
Bq         4.1118876066    -0.4846025061     0.8291345231
Bq         3.9321355564    -0.5841961193     1.4982909417
Bq         4.1375664710    -0.4703748471     0.7335407490
Bq         3.9064566921    -0.5984237784     1.5938847158
Bq         4.1632453353    -0.4561471881     0.6379469749
Bq         4.0348510137    -0.5272854832     1.1159158453
Bq         4.0054810988    -0.4425304482     1.2252501590
Bq         4.0568388275    -0.4140751301     1.0340626108
Bq         3.9798022345    -0.4567581072     1.3208439331
Bq         4.0825176918    -0.3998474711     0.9384688367
Bq         3.9541233702    -0.4709857663     1.4164377072
Bq         4.1081965561    -0.3856198121     0.8428750626
Bq         3.9284445058    -0.4852134253     1.5120314813
Bq         4.1338754204    -0.3713921531     0.7472812885
Bq         3.9027656415    -0.4994410843     1.6076252554
Bq         4.1595542848    -0.3571644940     0.6516875144
Bq         4.0311599631    -0.4283027892     1.1296563849
Bq         4.0017900483    -0.3435477542     1.2389906986
Bq         4.0531477769    -0.3150924361     1.0478031504
Bq         3.9761111840    -0.3577754132     1.3345844727
Bq         4.0788266412    -0.3008647771     0.9522093763
Bq         3.9504323196    -0.3720030722     1.4301782467
Bq         4.1045055056    -0.2866371181     0.8566156022
Bq         3.9247534553    -0.3862307313     1.5257720208
Bq         4.1301843699    -0.2724094590     0.7610218281
Bq         3.8990745910    -0.4004583903     1.6213657949
Bq         4.1558632342    -0.2581818000     0.6654280540
Bq         4.0274689126    -0.3293200951     1.1433969245
Bq         3.9980989977    -0.2445650601     1.2527312381
Bq         4.0494567264    -0.2161097421     1.0615436899
Bq         3.9724201334    -0.2587927192     1.3483250122
Bq         4.0751355907    -0.2018820830     0.9659499158
Bq         3.9467412691    -0.2730203782     1.4439187863
Bq         4.1008144550    -0.1876544240     0.8703561417
Bq         3.9210624048    -0.2872480372     1.5395125604
Bq         4.1264933194    -0.1734267650     0.7747623676
Bq         3.8953835405    -0.3014756962     1.6351063345
Bq         4.1521721837    -0.1591991060     0.6791685935
Bq         4.0237778621    -0.2303374011     1.1571374640
Bq         3.9944079472    -0.1455823661     1.2664717777
Bq         4.0457656759    -0.1171270480     1.0752842295
Bq         3.9687290829    -0.1598100251     1.3620655518
Bq         4.0714445402    -0.1028993890     0.9796904554
Bq         3.9430502186    -0.1740376842     1.4576593259
Bq         4.0971234045    -0.0886717300     0.8840966813
Bq         3.9173713542    -0.1882653432     1.5532531000
Bq         4.1228022688    -0.0744440710     0.7885029072
Bq         3.8916924899    -0.2024930022     1.6488468741
Bq         4.1484811331    -0.0602164119     0.6929091331
Bq         4.0200868115    -0.1313547071     1.1708780036
Bq         3.9907168967    -0.0465996721     1.2802123172
Bq         4.0420746253    -0.0181443540     1.0890247690
Bq         3.9650380324    -0.0608273311     1.3758060913
Bq         4.0677534896    -0.0039166950     0.9934309950
Bq         3.9393591680    -0.0750549901     1.4713998654
Bq         4.0934323540     0.0103109641     0.8978372209
Bq         3.9136803037    -0.0892826491     1.5669936395

1
2
3
4
5
6
7
8
9
10
11
12
13
14
15
16
17
18
19
20
21
22
23
24
25
26
27
28
29
30
31
32
33
34
35
36
37
38
39
40
41
42
43
44
45
46
47
48
49
50
51
52
53
54
55
56
57
58
59
60
61
62
63
64
65
66
67
68
69
70
71
72
73
74
75
76
77
78
79
80
81
82
83
84
85
86
87
88
89
90
91
92
93
94
95
96
97
98
99
100
101
102
103
104
105
106
107
108
109
110
111
112
113
114
115
116
117
118
119
120
121
122
123
124
125
126
127
128
129
130
131
132
133
134
135
136
137
138
139
140
141
142
143
144
145
146
147
148
149
150
151
152
153
154
155
156
157
158
159
160
161
162
163
164
165
166
167
168
169
170
171
172
173
174
175
176
177
178
179
180
181
182
183
184
185
186
187
188
189
190
191
192
193
194
195
196
197
198
199
200
201
202
203
204
205
206
207
208
209
210
211
212
213
214
215
216
217
218
219
220
221
222
223
224
225
226
227
228
229
230
231
232
233
234
235
236

