%nproc=8
%mem=1000MB
# rb3lyp/6-311+g** NMR geom=connectivity

Title

0 1
C    -4.0500558   -0.5771862    0.8136712
H    -5.0263804   -1.0082727    1.0024760
C    -3.9381552    0.6617804    0.2400876
H    -4.8252424    1.2338890   -0.0111295
C    -2.6768410    1.2433246    0.0057578
C    -1.4974121    0.5051527    0.2848253
C    -1.6508332   -0.7338728    0.9404026
H    -0.7713646   -1.2730967    1.2633753
C    -2.8898548   -1.2624035    1.1994307
H    -2.9683706   -2.2124563    1.7152676
C    -2.5773185    2.5963696   -0.4192930
H    -3.4870728    3.1412239   -0.6474055
C    -1.3741895    3.2147896   -0.4364030
H    -1.2997315    4.2742019   -0.6578144
C    -0.1719488    2.4994090   -0.1734588
C    -0.2043917    1.1018437    0.0192689
C     1.0513491    3.2042560   -0.0676222
H     1.0427344    4.2819499   -0.1896997
C     2.1942091    2.5487446    0.2579577
H     3.1168527    3.0912848    0.4334727
C     2.2216473    1.1336562    0.2934990
C     1.0486931    0.3945528    0.0302412
C     3.4483363    0.4614633    0.5573939
H     4.3095794    1.0606054    0.8334846
C     3.5427346   -0.8855926    0.4749463
H     4.4731467   -1.3939704    0.7038822
C     2.4490052   -1.6474447   -0.0196319
C     1.2150704   -1.0057258   -0.3013573
C     0.2531113   -1.7434440   -1.0216591
H    -0.6541356   -1.2535051   -1.3462847
C     0.4494193   -3.0628597   -1.3413779
H    -0.3083162   -3.5944309   -1.9054060
C     1.6251726   -3.7207967   -0.9552541
H     1.7670048   -4.7687404   -1.1927019
C     2.6109872   -3.0144177   -0.3183050
H     3.5525612   -3.4902813   -0.0646367
Bq        -3.5200822662     2.6123749757    -0.0842315429
Bq        -3.5392921729     2.7351215626     0.4000867976
Bq        -3.5162402849     2.5878256583    -0.1810952110
Bq        -3.5431341542     2.7596708800     0.4969504657
Bq        -3.5123983036     2.5632763409    -0.2779588790
Bq        -3.5469761355     2.7842201973     0.5938141338
Bq        -3.5085563223     2.5387270236    -0.3748225471
Bq        -3.5277662289     2.6614736105     0.1094957933
Bq        -3.5306352560     2.7829627598     0.1818294320
Bq        -3.5229512933     2.7338641250    -0.0118979042
Bq        -3.5344772373     2.8075120771     0.2786931001
Bq        -3.5191093120     2.7093148076    -0.1087615723
Bq        -3.5383192187     2.8320613945     0.3755567682
Bq        -3.5152673307     2.6847654903    -0.2056252404
Bq        -3.5421612000     2.8566107119     0.4724204362
Bq        -3.5114253494     2.6602161729    -0.3024889085
Bq        -3.5460031813     2.8811600293     0.5692841043
Bq        -3.5075833680     2.6356668555    -0.3993525766
Bq        -3.5267932747     2.7584134424     0.0849657639
Bq        -3.5296623018     2.8799025917     0.1572994026
Bq        -3.5219783391     2.8308039570    -0.0364279336
Bq        -3.5335042831     2.9044519091     0.2541630706
Bq        -3.5181363578     2.8062546396    -0.1332916017
Bq        -3.5373462644     2.9290012265     0.3510267387
Bq        -3.5142943765     2.7817053222    -0.2301552698
Bq        -3.5411882458     2.9535505438     0.4478904068
Bq        -3.5104523951     2.7571560048    -0.3270189379
Bq        -3.5450302271     2.9780998612     0.5447540749
Bq        -3.5066104138     2.7326066875    -0.4238826060
Bq        -3.5258203205     2.8553532743     0.0604357345
Bq        -3.5286893476     2.9768424236     0.1327693731
Bq        -3.5210053849     2.9277437889    -0.0609579631
Bq        -3.5325313289     3.0013917410     0.2296330412
Bq        -3.5171634036     2.9031944715    -0.1578216311
Bq        -3.5363733102     3.0259410584     0.3264967093
Bq        -3.5133214222     2.8786451541    -0.2546852992
Bq        -3.5402152915     3.0504903758     0.4233603774
Bq        -3.5094794409     2.8540958368    -0.3515489673
Bq        -3.5440572729     3.0750396931     0.5202240455
Bq        -3.5056374596     2.8295465194    -0.4484126354
Bq        -3.5248473662     2.9522931063     0.0359057050
Bq        -3.5277163933     3.0737822556     0.1082393437
Bq        -3.5200324307     3.0246836208    -0.0854879925
Bq        -3.5315583747     3.0983315730     0.2051030118
Bq        -3.5161904493     3.0001343035    -0.1823516606
Bq        -3.5354003560     3.1228808903     0.3019666799
Bq        -3.5123484680     2.9755849861    -0.2792153287
Bq        -3.5392423373     3.1474302077     0.3988303480
Bq        -3.5085064867     2.9510356687    -0.3760789968
Bq        -3.5430843186     3.1719795251     0.4956940161
Bq        -3.5046645054     2.9264863513    -0.4729426648
Bq        -3.5238744120     3.0492329382     0.0113756756
Bq        -3.5267434391     3.1707220875     0.0837093143
Bq        -3.5190594764     3.1216234528    -0.1100180219
Bq        -3.5305854204     3.1952714049     0.1805729824
Bq        -3.5152174951     3.0970741354    -0.2068816900
Bq        -3.5344274018     3.2198207223     0.2774366504
Bq        -3.5113755138     3.0725248180    -0.3037453581
Bq        -3.5382693831     3.2443700397     0.3743003185
Bq        -3.5075335325     3.0479755006    -0.4006090262
Bq        -3.5421113644     3.2689193570     0.4711639866
Bq        -3.5036915511     3.0234261833    -0.4974726943
Bq        -3.5229014578     3.1461727701    -0.0131543538
Bq        -3.5257704849     3.2676619195     0.0591792848
Bq        -3.5180865222     3.2185632847    -0.1345480513
Bq        -3.5296124662     3.2922112368     0.1560429529
Bq        -3.5142445409     3.1940139673    -0.2314117194
Bq        -3.5334544475     3.3167605542     0.2529066210
Bq        -3.5104025596     3.1694646500    -0.3282753875
Bq        -3.5372964289     3.3413098716     0.3497702891
Bq        -3.5065605782     3.1449153326    -0.4251390556
Bq        -3.5411384102     3.3658591890     0.4466339572
Bq        -3.5027185969     3.1203660152    -0.5220027237
Bq        -3.5219285036     3.2431126021    -0.0376843832
Bq        -3.5247975307     3.3646017514     0.0346492554
Bq        -3.5171135680     3.3155031167    -0.1590780808
Bq        -3.5286395120     3.3891510688     0.1315129235
Bq        -3.5132715867     3.2909537993    -0.2559417489
Bq        -3.5324814933     3.4137003862     0.2283765916
Bq        -3.5094296053     3.2664044819    -0.3528054169
Bq        -3.5363234746     3.4382497035     0.3252402597
Bq        -3.5055876240     3.2418551645    -0.4496690850
Bq        -3.5401654560     3.4627990209     0.4221039278
Bq        -3.5017456427     3.2173058471    -0.5465327531
Bq        -3.5209555493     3.3400524340    -0.0622144127
Bq        -3.5238245764     3.4615415833     0.0101192260
Bq        -3.5161406138     3.4124429486    -0.1836081102
Bq        -3.5276665578     3.4860909007     0.1069828941
Bq        -3.5122986324     3.3878936312    -0.2804717783
Bq        -3.5315085391     3.5106402181     0.2038465622
Bq        -3.5084566511     3.3633443138    -0.3773354464
Bq        -3.5353505204     3.5351895355     0.3007102303
Bq        -3.5046146698     3.3387949965    -0.4741991145
Bq        -3.5391925017     3.5597388528     0.3975738983
Bq        -3.5007726885     3.3142456791    -0.5710627826
Bq        -3.5199825951     3.4369922660    -0.0867444421
Bq        -3.5228516222     3.5584814153    -0.0144108034
Bq        -3.5151676596     3.5093827805    -0.2081381396
Bq        -3.5266936035     3.5830307327     0.0824528647
Bq        -3.5113256782     3.4848334632    -0.3050018077
Bq        -3.5305355849     3.6075800500     0.1793165327
Bq        -3.5074836969     3.4602841458    -0.4018654758
Bq        -3.5343775662     3.6321293674     0.2761802008
Bq        -3.5036417156     3.4357348284    -0.4987291439
Bq        -3.5382195475     3.6566786848     0.3730438689
Bq        -3.4997997342     3.4111855110    -0.5955928120
Bq        -3.5190096409     3.5339320979    -0.1112744715
Bq        -3.5218786680     3.6554212472    -0.0389408329
Bq        -3.5141947053     3.6063226125    -0.2326681690
Bq        -3.5257206493     3.6799705646     0.0579228352
Bq        -3.5103527240     3.5817732951    -0.3295318371
Bq        -3.5295626306     3.7045198820     0.1547865033
Bq        -3.5065107427     3.5572239777    -0.4263955052
Bq        -3.5334046120     3.7290691993     0.2516501714
Bq        -3.5026687613     3.5326746603    -0.5232591733
Bq        -3.5372465933     3.7536185167     0.3485138395
Bq        -3.4988267800     3.5081253430    -0.6201228414
Bq        -3.5180366867     3.6308719298    -0.1358045010
Bq        -3.5209057138     3.7523610792    -0.0634708623
Bq        -3.5132217511     3.7032624444    -0.2571981985
Bq        -3.5247476951     3.7769103965     0.0333928058
Bq        -3.5093797698     3.6787131270    -0.3540618666
Bq        -3.5285896764     3.8014597139     0.1302564739
Bq        -3.5055377884     3.6541638097    -0.4509255347
Bq        -3.5324316577     3.8260090313     0.2271201420
Bq        -3.5016958071     3.6296144923    -0.5477892027
Bq        -3.5362736391     3.8505583487     0.3239838101
Bq        -3.4978538258     3.6050651749    -0.6446528708
Bq        -3.5170637324     3.7278117618    -0.1603345304
Bq        -3.5199327595     3.8493009111    -0.0880008917
Bq        -3.5122487969     3.8002022763    -0.2817282279
Bq        -3.5237747409     3.8738502285     0.0088627764
Bq        -3.5084068155     3.7756529590    -0.3785918960
Bq        -3.5276167222     3.8983995458     0.1057264445
Bq        -3.5045648342     3.7511036416    -0.4754555641
Bq        -3.5314587035     3.9229488632     0.2025901125
Bq        -3.5007228529     3.7265543242    -0.5723192322
Bq        -3.5353006849     3.9474981806     0.2994537806
Bq        -3.4968808716     3.7020050068    -0.6691829003
Bq        -3.5160907782     3.8247515937    -0.1848645598
Bq        -3.5189598053     3.9462407430    -0.1125309211
Bq        -3.5112758427     3.8971421083    -0.3062582573
Bq        -3.5228017866     3.9707900604    -0.0156672531
Bq        -3.5074338613     3.8725927909    -0.4031219254
Bq        -3.5266437680     3.9953393778     0.0811964150
Bq        -3.5035918800     3.8480434735    -0.4999855935
Bq        -3.5304857493     4.0198886952     0.1780600831
Bq        -3.4997498987     3.8234941562    -0.5968492616
Bq        -3.5343277306     4.0444380125     0.2749237512
Bq        -3.4959079173     3.7989448388    -0.6937129297
Bq        -3.5151178240     3.9216914257    -0.2093945892
Bq        -3.5179868511     4.0431805750    -0.1370609506
Bq        -3.5103028884     3.9940819402    -0.3307882868
Bq        -3.5218288324     4.0677298924    -0.0401972825
Bq        -3.5064609071     3.9695326228    -0.4276519548
Bq        -3.5256708137     4.0922792097     0.0566663856
Bq        -3.5026189258     3.9449833055    -0.5245156229
Bq        -3.5295127951     4.1168285271     0.1535300537
Bq        -3.4987769444     3.9204339881    -0.6213792910
Bq        -3.5333547764     4.1413778445     0.2503937218
Bq        -3.4949349631     3.8958846707    -0.7182429591
Bq        -3.5141448698     4.0186312576    -0.2339246187
Bq        -3.5170138969     4.1401204069    -0.1615909800
Bq        -3.5093299342     4.0910217722    -0.3553183162
Bq        -3.5208558782     4.1646697243    -0.0647273119
Bq        -3.5054879529     4.0664724548    -0.4521819843
Bq        -3.5246978595     4.1892190417     0.0321363562
Bq        -3.5016459715     4.0419231374    -0.5490456524
Bq        -3.5285398408     4.2137683590     0.1290000243
Bq        -3.4978039902     4.0173738200    -0.6459093205
Bq        -3.5323818222     4.2383176764     0.2258636924
Bq        -3.4939620089     3.9928245027    -0.7427729885
Bq        -3.5131719155     4.1155710895    -0.2584546481
Bq        -3.5160409426     4.2370602389    -0.1861210094
Bq        -3.5083569800     4.1879616041    -0.3798483456
Bq        -3.5198829240     4.2616095562    -0.0892573413
Bq        -3.5045149987     4.1634122867    -0.4767120137
Bq        -3.5237249053     4.2861588736     0.0076063268
Bq        -3.5006730173     4.1388629694    -0.5735756818
Bq        -3.5275668866     4.3107081910     0.1044699948
Bq        -3.4968310360     4.1143136520    -0.6704393499
Bq        -3.5314088680     4.3352575084     0.2013336629
Bq        -3.4929890547     4.0897643346    -0.7673030180
Bq        -3.5121989613     4.2125109215    -0.2829846775
Bq        -3.5150679884     4.3340000708    -0.2106510389
Bq        -3.5073840258     4.2849014360    -0.4043783750
Bq        -3.5189099697     4.3585493882    -0.1137873708
Bq        -3.5035420444     4.2603521187    -0.5012420431
Bq        -3.5227519511     4.3830987055    -0.0169237027
Bq        -3.4997000631     4.2358028013    -0.5981057112
Bq        -3.5265939324     4.4076480229     0.0799399654
Bq        -3.4958580818     4.2112534839    -0.6949693793
Bq        -3.5304359137     4.4321973403     0.1768036335
Bq        -3.4920161004     4.1867041665    -0.7918330474
Bq        -3.5112260071     4.3094507534    -0.3075147069
Bq        -3.5140950342     4.4309399027    -0.2351810683
Bq        -3.5064110715     4.3818412680    -0.4289084045
Bq        -3.5179370155     4.4554892201    -0.1383174002
Bq        -3.5025690902     4.3572919506    -0.5257720726
Bq        -3.5217789968     4.4800385375    -0.0414537321

1
2
3
4
5
6
7
8
9
10
11
12
13
14
15
16
17
18
19
20
21
22
23
24
25
26
27
28
29
30
31
32
33
34
35
36
37
38
39
40
41
42
43
44
45
46
47
48
49
50
51
52
53
54
55
56
57
58
59
60
61
62
63
64
65
66
67
68
69
70
71
72
73
74
75
76
77
78
79
80
81
82
83
84
85
86
87
88
89
90
91
92
93
94
95
96
97
98
99
100
101
102
103
104
105
106
107
108
109
110
111
112
113
114
115
116
117
118
119
120
121
122
123
124
125
126
127
128
129
130
131
132
133
134
135
136
137
138
139
140
141
142
143
144
145
146
147
148
149
150
151
152
153
154
155
156
157
158
159
160
161
162
163
164
165
166
167
168
169
170
171
172
173
174
175
176
177
178
179
180
181
182
183
184
185
186
187
188
189
190
191
192
193
194
195
196
197
198
199
200
201
202
203
204
205
206
207
208
209
210
211
212
213
214
215
216
217
218
219
220
221
222
223
224
225
226
227
228
229
230
231
232
233
234
235
236

