%nproc=8
%mem=1000MB
# rb3lyp/6-311+g** NMR geom=connectivity

Title

0 1
C    -4.0500558   -0.5771862    0.8136712
H    -5.0263804   -1.0082727    1.0024760
C    -3.9381552    0.6617804    0.2400876
H    -4.8252424    1.2338890   -0.0111295
C    -2.6768410    1.2433246    0.0057578
C    -1.4974121    0.5051527    0.2848253
C    -1.6508332   -0.7338728    0.9404026
H    -0.7713646   -1.2730967    1.2633753
C    -2.8898548   -1.2624035    1.1994307
H    -2.9683706   -2.2124563    1.7152676
C    -2.5773185    2.5963696   -0.4192930
H    -3.4870728    3.1412239   -0.6474055
C    -1.3741895    3.2147896   -0.4364030
H    -1.2997315    4.2742019   -0.6578144
C    -0.1719488    2.4994090   -0.1734588
C    -0.2043917    1.1018437    0.0192689
C     1.0513491    3.2042560   -0.0676222
H     1.0427344    4.2819499   -0.1896997
C     2.1942091    2.5487446    0.2579577
H     3.1168527    3.0912848    0.4334727
C     2.2216473    1.1336562    0.2934990
C     1.0486931    0.3945528    0.0302412
C     3.4483363    0.4614633    0.5573939
H     4.3095794    1.0606054    0.8334846
C     3.5427346   -0.8855926    0.4749463
H     4.4731467   -1.3939704    0.7038822
C     2.4490052   -1.6474447   -0.0196319
C     1.2150704   -1.0057258   -0.3013573
C     0.2531113   -1.7434440   -1.0216591
H    -0.6541356   -1.2535051   -1.3462847
C     0.4494193   -3.0628597   -1.3413779
H    -0.3083162   -3.5944309   -1.9054060
C     1.6251726   -3.7207967   -0.9552541
H     1.7670048   -4.7687404   -1.1927019
C     2.6109872   -3.0144177   -0.3183050
H     3.5525612   -3.4902813   -0.0646367
Bq         3.1366724240    -3.5857981498     0.4274927958
Bq         3.2163959515    -3.5325668476     0.2519633464
Bq         3.0968106602    -3.6124138009     0.5152575205
Bq         3.2562577153    -3.5059511965     0.1641986217
Bq         3.0569488964    -3.6390294520     0.6030222452
Bq         3.2961194791    -3.4793355454     0.0764338970
Bq         3.0170871326    -3.6656451031     0.6907869699
Bq         3.3359812429    -3.4527198943    -0.0113308278
Bq         2.9772253688    -3.6922607542     0.7785516947
Bq         3.3758430067    -3.4261042432    -0.0990955525
Bq         3.1765341878    -3.5591824987     0.3397280711
Bq         3.1256659506    -3.4894051671     0.4517260463
Bq         3.2053894782    -3.4361738649     0.2761965968
Bq         3.0858041868    -3.5160208182     0.5394907710
Bq         3.2452512420    -3.4095582138     0.1884318721
Bq         3.0459424230    -3.5426364693     0.6272554957
Bq         3.2851130057    -3.3829425627     0.1006671474
Bq         3.0060806592    -3.5692521204     0.7150202204
Bq         3.3249747695    -3.3563269116     0.0129024227
Bq         2.9662188954    -3.5958677715     0.8027849451
Bq         3.3648365333    -3.3297112605    -0.0748623020
Bq         3.1655277144    -3.4627895160     0.3639613216
Bq         3.1146594772    -3.3930121844     0.4759592967
Bq         3.1943830048    -3.3397808822     0.3004298473
Bq         3.0747977134    -3.4196278355     0.5637240214
Bq         3.2342447686    -3.3131652311     0.2126651226
Bq         3.0349359497    -3.4462434866     0.6514887461
Bq         3.2741065324    -3.2865495800     0.1249003979
Bq         2.9950741859    -3.4728591377     0.7392534709
Bq         3.3139682962    -3.2599339288     0.0371356732
Bq         2.9552124221    -3.4994747888     0.8270181956
Bq         3.3538300600    -3.2333182777    -0.0506290516
Bq         3.1545212410    -3.3663965333     0.3881945720
Bq         3.1036530039    -3.2966192017     0.5001925472
Bq         3.1833765314    -3.2433878995     0.3246630978
Bq         3.0637912401    -3.3232348528     0.5879572719
Bq         3.2232382952    -3.2167722484     0.2368983730
Bq         3.0239294763    -3.3498505039     0.6757219966
Bq         3.2631000590    -3.1901565972     0.1491336483
Bq         2.9840677125    -3.3764661550     0.7634867213
Bq         3.3029618228    -3.1635409461     0.0613689236
Bq         2.9442059487    -3.4030818061     0.8512514460
Bq         3.3428235866    -3.1369252950    -0.0263958011
Bq         3.1435147676    -3.2700035506     0.4124278225
Bq         3.0926465305    -3.2002262190     0.5244257976
Bq         3.1723700581    -3.1469949167     0.3488963482
Bq         3.0527847667    -3.2268418701     0.6121905224
Bq         3.2122318218    -3.1203792656     0.2611316235
Bq         3.0129230029    -3.2534575212     0.6999552471
Bq         3.2520935856    -3.0937636145     0.1733668988
Bq         2.9730612391    -3.2800731723     0.7877199718
Bq         3.2919553494    -3.0671479634     0.0856021741
Bq         2.9331994753    -3.3066888234     0.8754846965
Bq         3.3318171132    -3.0405323123    -0.0021625506
Bq         3.1325082943    -3.1736105679     0.4366610729
Bq         3.0816400571    -3.1038332362     0.5486590481
Bq         3.1613635847    -3.0506019340     0.3731295987
Bq         3.0417782933    -3.1304488874     0.6364237728
Bq         3.2012253485    -3.0239862829     0.2853648740
Bq         3.0019165295    -3.1570645385     0.7241884975
Bq         3.2410871123    -2.9973706318     0.1976001492
Bq         2.9620547657    -3.1836801896     0.8119532222
Bq         3.2809488760    -2.9707549807     0.1098354245
Bq         2.9221930020    -3.2102958407     0.8997179469
Bq         3.3208106398    -2.9441393296     0.0220706998
Bq         3.1215018209    -3.0772175851     0.4608943234
Bq         3.0706335837    -3.0074402535     0.5728922986
Bq         3.1503571113    -2.9542089513     0.3973628491
Bq         3.0307718200    -3.0340559046     0.6606570233
Bq         3.1902188751    -2.9275933002     0.3095981244
Bq         2.9909100562    -3.0606715558     0.7484217480
Bq         3.2300806389    -2.9009776491     0.2218333997
Bq         2.9510482924    -3.0872872069     0.8361864727
Bq         3.2699424027    -2.8743619980     0.1340686750
Bq         2.9111865286    -3.1139028580     0.9239511974
Bq         3.3098041665    -2.8477463469     0.0463039503
Bq         3.1104953475    -2.9808246024     0.4851275738
Bq         3.0596271104    -2.9110472708     0.5971255490
Bq         3.1393506379    -2.8578159686     0.4215960996
Bq         3.0197653466    -2.9376629219     0.6848902737
Bq         3.1792124017    -2.8312003175     0.3338313749
Bq         2.9799035828    -2.9642785730     0.7726549984
Bq         3.2190741655    -2.8045846664     0.2460666502
Bq         2.9400418190    -2.9908942241     0.8604197231
Bq         3.2589359293    -2.7779690153     0.1583019254
Bq         2.9001800552    -3.0175098753     0.9481844479
Bq         3.2987976931    -2.7513533642     0.0705372007
Bq         3.0994888742    -2.8844316197     0.5093608243
Bq         3.0486206370    -2.8146542881     0.6213587995
Bq         3.1283441646    -2.7614229859     0.4458293500
Bq         3.0087588732    -2.8412699392     0.7091235242
Bq         3.1682059284    -2.7348073348     0.3580646253
Bq         2.9688971094    -2.8678855903     0.7968882489
Bq         3.2080676921    -2.7081916837     0.2702999006
Bq         2.9290353456    -2.8945012414     0.8846529736
Bq         3.2479294559    -2.6815760326     0.1825351759
Bq         2.8891735818    -2.9211168925     0.9724176983
Bq         3.2877912197    -2.6549603815     0.0947704512
Bq         3.0884824008    -2.7880386370     0.5335940748
Bq         3.0376141636    -2.7182613054     0.6455920499
Bq         3.1173376912    -2.6650300032     0.4700626005
Bq         2.9977523998    -2.7448769565     0.7333567746
Bq         3.1571994550    -2.6384143521     0.3822978758
Bq         2.9578906360    -2.7714926076     0.8211214994
Bq         3.1970612188    -2.6117987010     0.2945331511
Bq         2.9180288723    -2.7981082587     0.9088862241
Bq         3.2369229826    -2.5851830499     0.2067684264
Bq         2.8781671085    -2.8247239098     0.9966509488
Bq         3.2767847463    -2.5585673988     0.1190037017
Bq         3.0774759274    -2.6916456543     0.5578273252
Bq         3.0266076903    -2.6218683227     0.6698253004
Bq         3.1063312178    -2.5686370205     0.4942958510
Bq         2.9867459265    -2.6484839738     0.7575900251
Bq         3.1461929816    -2.5420213694     0.4065311262
Bq         2.9468841627    -2.6750996249     0.8453547498
Bq         3.1860547454    -2.5154057183     0.3187664015
Bq         2.9070223989    -2.7017152760     0.9331194745
Bq         3.2259165092    -2.4887900672     0.2310016768
Bq         2.8671606351    -2.7283309271     1.0208841992
Bq         3.2657782730    -2.4621744160     0.1432369521
Bq         3.0664694540    -2.5952526716     0.5820605757
Bq         3.0156012169    -2.5254753400     0.6940585508
Bq         3.0953247445    -2.4722440378     0.5185291014
Bq         2.9757394531    -2.5520909911     0.7818232756
Bq         3.1351865082    -2.4456283867     0.4307643767
Bq         2.9358776893    -2.5787066422     0.8695880003
Bq         3.1750482720    -2.4190127355     0.3429996520
Bq         2.8960159255    -2.6053222933     0.9573527250
Bq         3.2149100358    -2.3923970844     0.2552349273
Bq         2.8561541617    -2.6319379444     1.0451174497
Bq         3.2547717996    -2.3657814333     0.1674702026
Bq         3.0554629807    -2.4988596889     0.6062938261
Bq         3.0045947435    -2.4290823573     0.7182918013
Bq         3.0843182711    -2.3758510550     0.5427623519
Bq         2.9647329797    -2.4556980084     0.8060565260
Bq         3.1241800349    -2.3492354039     0.4549976272
Bq         2.9248712159    -2.4823136595     0.8938212507
Bq         3.1640417987    -2.3226197528     0.3672329025
Bq         2.8850094521    -2.5089293106     0.9815859754
Bq         3.2039035624    -2.2960041017     0.2794681777
Bq         2.8451476884    -2.5355449617     1.0693507002
Bq         3.2437653262    -2.2693884506     0.1917034530
Bq         3.0444565073    -2.4024667062     0.6305270766
Bq         2.9935882701    -2.3326893746     0.7425250518
Bq         3.0733117977    -2.2794580723     0.5669956023
Bq         2.9537265063    -2.3593050257     0.8302897765
Bq         3.1131735615    -2.2528424212     0.4792308776
Bq         2.9138647426    -2.3859206768     0.9180545012
Bq         3.1530353253    -2.2262267701     0.3914661529
Bq         2.8740029788    -2.4125363279     1.0058192259
Bq         3.1928970891    -2.1996111190     0.3037014282
Bq         2.8341412150    -2.4391519790     1.0935839506
Bq         3.2327588529    -2.1729954679     0.2159367035
Bq         3.0334500339    -2.3060737234     0.6547603270
Bq         2.9825817968    -2.2362963918     0.7667583022
Bq         3.0623053243    -2.1830650896     0.5912288528
Bq         2.9427200330    -2.2629120429     0.8545230269
Bq         3.1021670881    -2.1564494385     0.5034641281
Bq         2.9028582692    -2.2895276941     0.9422877516
Bq         3.1420288519    -2.1298337874     0.4156994034
Bq         2.8629965054    -2.3161433452     1.0300524764
Bq         3.1818906157    -2.1032181363     0.3279346787
Bq         2.8231347416    -2.3427589963     1.1178172011
Bq         3.2217523795    -2.0766024852     0.2401699539
Bq         3.0224435605    -2.2096807407     0.6789935775
Bq         2.9715753234    -2.1399034091     0.7909915527
Bq         3.0512988510    -2.0866721069     0.6154621032
Bq         2.9317135596    -2.1665190602     0.8787562774
Bq         3.0911606148    -2.0600564558     0.5276973785
Bq         2.8918517958    -2.1931347113     0.9665210021
Bq         3.1310223785    -2.0334408047     0.4399326538
Bq         2.8519900320    -2.2197503624     1.0542857268
Bq         3.1708841423    -2.0068251536     0.3521679291
Bq         2.8121282682    -2.2463660136     1.1420504515
Bq         3.2107459061    -1.9802095025     0.2644032044
Bq         3.0114370872    -2.1132877580     0.7032268280
Bq         2.9605688500    -2.0435104264     0.8152248031
Bq         3.0402923776    -1.9902791242     0.6396953537
Bq         2.9207070862    -2.0701260775     0.9029895278
Bq         3.0801541414    -1.9636634731     0.5519306290
Bq         2.8808453224    -2.0967417286     0.9907542526
Bq         3.1200159052    -1.9370478220     0.4641659043
Bq         2.8409835587    -2.1233573797     1.0785189773
Bq         3.1598776690    -1.9104321709     0.3764011796
Bq         2.8011217949    -2.1499730308     1.1662837020
Bq         3.1997394327    -1.8838165198     0.2886364549
Bq         3.0004306138    -2.0168947753     0.7274600784
Bq         2.9495623766    -1.9471174437     0.8394580536
Bq         3.0292859042    -1.8938861415     0.6639286042
Bq         2.9097006129    -1.9737330948     0.9272227783
Bq         3.0691476680    -1.8672704904     0.5761638795
Bq         2.8698388491    -2.0003487459     1.0149875030
Bq         3.1090094318    -1.8406548393     0.4883991547
Bq         2.8299770853    -2.0269643970     1.1027522277
Bq         3.1488711956    -1.8140391882     0.4006344300
Bq         2.7901153215    -2.0535800481     1.1905169524
Bq         3.1887329594    -1.7874235371     0.3128697053
Bq         2.9894241404    -1.9205017926     0.7516933289
Bq         2.9385559033    -1.8507244610     0.8636913040
Bq         3.0182794308    -1.7974931588     0.6881618546

1
2
3
4
5
6
7
8
9
10
11
12
13
14
15
16
17
18
19
20
21
22
23
24
25
26
27
28
29
30
31
32
33
34
35
36
37
38
39
40
41
42
43
44
45
46
47
48
49
50
51
52
53
54
55
56
57
58
59
60
61
62
63
64
65
66
67
68
69
70
71
72
73
74
75
76
77
78
79
80
81
82
83
84
85
86
87
88
89
90
91
92
93
94
95
96
97
98
99
100
101
102
103
104
105
106
107
108
109
110
111
112
113
114
115
116
117
118
119
120
121
122
123
124
125
126
127
128
129
130
131
132
133
134
135
136
137
138
139
140
141
142
143
144
145
146
147
148
149
150
151
152
153
154
155
156
157
158
159
160
161
162
163
164
165
166
167
168
169
170
171
172
173
174
175
176
177
178
179
180
181
182
183
184
185
186
187
188
189
190
191
192
193
194
195
196
197
198
199
200
201
202
203
204
205
206
207
208
209
210
211
212
213
214
215
216
217
218
219
220
221
222
223
224
225
226
227
228
229
230
231
232
233
234
235
236

