%nproc=8
%mem=1000MB
# rb3lyp/6-311+g** NMR geom=connectivity

Title

0 1
C    -4.0500558   -0.5771862    0.8136712
H    -5.0263804   -1.0082727    1.0024760
C    -3.9381552    0.6617804    0.2400876
H    -4.8252424    1.2338890   -0.0111295
C    -2.6768410    1.2433246    0.0057578
C    -1.4974121    0.5051527    0.2848253
C    -1.6508332   -0.7338728    0.9404026
H    -0.7713646   -1.2730967    1.2633753
C    -2.8898548   -1.2624035    1.1994307
H    -2.9683706   -2.2124563    1.7152676
C    -2.5773185    2.5963696   -0.4192930
H    -3.4870728    3.1412239   -0.6474055
C    -1.3741895    3.2147896   -0.4364030
H    -1.2997315    4.2742019   -0.6578144
C    -0.1719488    2.4994090   -0.1734588
C    -0.2043917    1.1018437    0.0192689
C     1.0513491    3.2042560   -0.0676222
H     1.0427344    4.2819499   -0.1896997
C     2.1942091    2.5487446    0.2579577
H     3.1168527    3.0912848    0.4334727
C     2.2216473    1.1336562    0.2934990
C     1.0486931    0.3945528    0.0302412
C     3.4483363    0.4614633    0.5573939
H     4.3095794    1.0606054    0.8334846
C     3.5427346   -0.8855926    0.4749463
H     4.4731467   -1.3939704    0.7038822
C     2.4490052   -1.6474447   -0.0196319
C     1.2150704   -1.0057258   -0.3013573
C     0.2531113   -1.7434440   -1.0216591
H    -0.6541356   -1.2535051   -1.3462847
C     0.4494193   -3.0628597   -1.3413779
H    -0.3083162   -3.5944309   -1.9054060
C     1.6251726   -3.7207967   -0.9552541
H     1.7670048   -4.7687404   -1.1927019
C     2.6109872   -3.0144177   -0.3183050
H     3.5525612   -3.4902813   -0.0646367
Bq        -3.8829337697     2.5253770771     0.3432508505
Bq        -3.8801018051     2.1775153411    -0.3771547246
Bq        -3.8832877653     2.5688597941     0.4333015473
Bq        -3.8797478095     2.1340326241    -0.4672054215
Bq        -3.8815177874     2.3514462091    -0.0169519371
Bq        -3.8817008507     2.4849803188     0.0296163788
Bq        -3.8809928595     2.3980148848    -0.1504850150
Bq        -3.8820548463     2.5284630358     0.1196670757
Bq        -3.8806388640     2.3545321678    -0.2405357119
Bq        -3.8824088418     2.5719457528     0.2097177726
Bq        -3.8802848684     2.3110494508    -0.3305864087
Bq        -3.8827628374     2.6154284698     0.2997684694
Bq        -3.8799308728     2.2675667338    -0.4206371056
Bq        -3.8831168330     2.6589111868     0.3898191663
Bq        -3.8795768772     2.2240840168    -0.5106878025
Bq        -3.8813468551     2.4414976018    -0.0604343181
Bq        -3.7902482371    -2.0175893147     2.2041285344
Bq        -3.7895402459    -2.1045547487     2.0240271406
Bq        -3.7906022327    -1.9741065977     2.2941792312
Bq        -3.7891862504    -2.1480374658     1.9339764437
Bq        -3.7909562282    -1.9306238807     2.3842299281
Bq        -3.7888322548    -2.1915201828     1.8439257468
Bq        -3.7913102238    -1.8871411637     2.4742806250
Bq        -3.7884782592    -2.2350028998     1.7538750499
Bq        -3.7916642194    -1.8436584467     2.5643313219
Bq        -3.7881242636    -2.2784856168     1.6638243531
Bq        -3.7898942415    -2.0610720317     2.1140778375
Bq        -3.7900773048    -1.9275379221     2.1606461533
Bq        -3.7893693137    -2.0145033561     1.9805447596
Bq        -3.7904313004    -1.8840552051     2.2506968502
Bq        -3.7890153181    -2.0579860731     1.8904940627
Bq        -3.7907852960    -1.8405724881     2.3407475471
Bq        -3.7886613225    -2.1014687901     1.8004433658
Bq        -3.7911392915    -1.7970897711     2.4307982440
Bq        -3.7883073269    -2.1449515071     1.7103926689
Bq        -3.7914932871    -1.7536070540     2.5208489408
Bq        -3.7879533314    -2.1884342241     1.6203419720
Bq        -3.7897233092    -1.9710206391     2.0705954564
Bq        -3.7899063725    -1.8374865294     2.1171637723
Bq        -3.7891983814    -1.9244519634     1.9370623785
Bq        -3.7902603681    -1.7940038124     2.2072144692
Bq        -3.7888443858    -1.9679346804     1.8470116816
Bq        -3.7906143637    -1.7505210954     2.2972651661
Bq        -3.7884903902    -2.0114173974     1.7569609848
Bq        -3.7909683593    -1.7070383784     2.3873158629
Bq        -3.7881363947    -2.0549001144     1.6669102879
Bq        -3.7913223548    -1.6635556614     2.4773665598
Bq        -3.7877823991    -2.0983828314     1.5768595910
Bq        -3.7895523770    -1.8809692464     2.0271130754
Bq        -3.7897354403    -1.7474351367     2.0736813913
Bq        -3.7890274491    -1.8344005707     1.8935799975
Bq        -3.7900894358    -1.7039524197     2.1637320881
Bq        -3.7886734535    -1.8778832877     1.8035293006
Bq        -3.7904434314    -1.6604697027     2.2537827850
Bq        -3.7883194580    -1.9213660047     1.7134786037
Bq        -3.7907974270    -1.6169869857     2.3438334819
Bq        -3.7879654624    -1.9648487217     1.6234279068
Bq        -3.7911514226    -1.5735042687     2.4338841788
Bq        -3.7876114668    -2.0083314388     1.5333772100
Bq        -3.7893814447    -1.7909178537     1.9836306944
Bq        -3.7895645080    -1.6573837441     2.0301990102
Bq        -3.7888565168    -1.7443491781     1.8500976165
Bq        -3.7899185036    -1.6139010270     2.1202497071
Bq        -3.7885025213    -1.7878318951     1.7600469196
Bq        -3.7902724991    -1.5704183100     2.2103004040
Bq        -3.7881485257    -1.8313146121     1.6699962227
Bq        -3.7906264947    -1.5269355930     2.3003511009
Bq        -3.7877945301    -1.8747973291     1.5799455258
Bq        -3.7909804903    -1.4834528760     2.3904017978
Bq        -3.7874405345    -1.9182800461     1.4898948289
Bq        -3.7892105124    -1.7008664611     1.9401483133
Bq        -3.7893935757    -1.5673323514     1.9867166292
Bq        -3.7886855846    -1.6542977854     1.8066152354
Bq        -3.7897475713    -1.5238496344     2.0767673261
Bq        -3.7883315890    -1.6977805024     1.7165645385
Bq        -3.7901015669    -1.4803669174     2.1668180230
Bq        -3.7879775934    -1.7412632194     1.6265138417
Bq        -3.7904555624    -1.4368842004     2.2568687198
Bq        -3.7876235978    -1.7847459364     1.5364631448
Bq        -3.7908095580    -1.3934014834     2.3469194167
Bq        -3.7872696023    -1.8282286534     1.4464124479
Bq        -3.7890395801    -1.6108150684     1.8966659323
Bq        -3.7892226434    -1.4772809587     1.9432342482
Bq        -3.7885146523    -1.5642463927     1.7631328544
Bq        -3.7895766390    -1.4337982417     2.0332849450
Bq        -3.7881606567    -1.6077291097     1.6730821575
Bq        -3.7899306346    -1.3903155247     2.1233356419
Bq        -3.7878066611    -1.6512118267     1.5830314606
Bq        -3.7902846302    -1.3468328077     2.2133863388
Bq        -3.7874526656    -1.6946945437     1.4929807637
Bq        -3.7906386257    -1.3033500907     2.3034370357
Bq        -3.7870986700    -1.7381772607     1.4029300669
Bq        -3.7888686479    -1.5207636757     1.8531835513
Bq        -3.7890517112    -1.3872295660     1.8997518671
Bq        -3.7883437200    -1.4741950001     1.7196504734
Bq        -3.7894057067    -1.3437468490     1.9898025640
Bq        -3.7879897244    -1.5176777171     1.6295997765
Bq        -3.7897597023    -1.3002641320     2.0798532609
Bq        -3.7876357289    -1.5611604341     1.5395490796
Bq        -3.7901136979    -1.2567814150     2.1699039578
Bq        -3.7872817333    -1.6046431511     1.4494983827
Bq        -3.7904676935    -1.2132986980     2.2599546547
Bq        -3.7869277377    -1.6481258681     1.3594476858
Bq        -3.7886977156    -1.4307122830     1.8097011702
Bq        -3.7888807789    -1.2971781734     1.8562694861
Bq        -3.7881727877    -1.3841436074     1.6761680923
Bq        -3.7892347745    -1.2536954564     1.9463201830
Bq        -3.7878187922    -1.4276263244     1.5861173954
Bq        -3.7895887700    -1.2102127394     2.0363708799
Bq        -3.7874647966    -1.4711090414     1.4960666986
Bq        -3.7899427656    -1.1667300224     2.1264215767
Bq        -3.7871108010    -1.5145917584     1.4060160017
Bq        -3.7902967612    -1.1232473054     2.2164722736
Bq        -3.7867568054    -1.5580744754     1.3159653048
Bq        -3.7885267833    -1.3406608904     1.7662187892
Bq        -3.7887098466    -1.2071267807     1.8127871051
Bq        -3.7880018555    -1.2940922147     1.6326857113
Bq        -3.7890638422    -1.1636440637     1.9028378019
Bq        -3.7876478599    -1.3375749317     1.5426350144
Bq        -3.7894178378    -1.1201613467     1.9928884988
Bq        -3.7872938643    -1.3810576487     1.4525843175
Bq        -3.7897718333    -1.0766786297     2.0829391957
Bq        -3.7869398687    -1.4245403657     1.3625336206
Bq        -3.7901258289    -1.0331959127     2.1729898926
Bq        -3.7865858732    -1.4680230827     1.2724829238
Bq        -3.7883558510    -1.2506094977     1.7227364082
Bq        -3.7885389143    -1.1170753880     1.7693047240
Bq        -3.7878309232    -1.2040408220     1.5892033303
Bq        -3.7888929099    -1.0735926710     1.8593554209
Bq        -3.7874769276    -1.2475235390     1.4991526334
Bq        -3.7892469055    -1.0301099540     1.9494061178
Bq        -3.7871229320    -1.2910062560     1.4091019365
Bq        -3.7896009011    -0.9866272370     2.0394568147
Bq        -3.7867689365    -1.3344889731     1.3190512396
Bq        -3.7899548966    -0.9431445200     2.1295075116
Bq        -3.7864149409    -1.3779716901     1.2290005427
Bq        -3.7881849188    -1.1605581050     1.6792540271
Bq        -3.7883679821    -1.0270239954     1.7258223430
Bq        -3.7876599909    -1.1139894294     1.5457209492
Bq        -3.7887219776    -0.9835412784     1.8158730399
Bq        -3.7873059953    -1.1574721464     1.4556702523
Bq        -3.7890759732    -0.9400585614     1.9059237368
Bq        -3.7869519998    -1.2009548634     1.3656195555
Bq        -3.7894299688    -0.8965758443     1.9959744336
Bq        -3.7865980042    -1.2444375804     1.2755688586
Bq        -3.7897839644    -0.8530931273     2.0860251305
Bq        -3.7862440086    -1.2879202974     1.1855181617
Bq        -3.7880139865    -1.0705067124     1.6357716461
Bq        -3.7881970498    -0.9369726027     1.6823399620
Bq        -3.7874890586    -1.0239380367     1.5022385682
Bq        -3.7885510454    -0.8934898857     1.7723906588
Bq        -3.7871350631    -1.0674207537     1.4121878713
Bq        -3.7889050409    -0.8500071687     1.8624413557
Bq        -3.7867810675    -1.1109034707     1.3221371744
Bq        -3.7892590365    -0.8065244517     1.9524920526
Bq        -3.7864270719    -1.1543861877     1.2320864775
Bq        -3.7896130321    -0.7630417347     2.0425427495
Bq        -3.7860730763    -1.1978689047     1.1420357807
Bq        -3.7878430542    -0.9804553197     1.5922892651
Bq        -3.7880261175    -0.8469212100     1.6388575809
Bq        -3.7873181264    -0.9338866440     1.4587561872
Bq        -3.7883801131    -0.8034384930     1.7289082778
Bq        -3.7869641308    -0.9773693610     1.3687054903
Bq        -3.7887341087    -0.7599557760     1.8189589747
Bq        -3.7866101352    -1.0208520780     1.2786547934
Bq        -3.7890881042    -0.7164730590     1.9090096716
Bq        -3.7862561396    -1.0643347950     1.1886040965
Bq        -3.7894420998    -0.6729903420     1.9990603685
Bq        -3.7859021441    -1.1078175120     1.0985533996
Bq        -3.7876721219    -0.8904039270     1.5488068840
Bq        -3.7878551852    -0.7568698173     1.5953751999
Bq        -3.7871471941    -0.8438352514     1.4152738061
Bq        -3.7882091808    -0.7133871003     1.6854258968
Bq        -3.7867931985    -0.8873179684     1.3252231092
Bq        -3.7885631764    -0.6699043833     1.7754765937
Bq        -3.7864392029    -0.9308006854     1.2351724124
Bq        -3.7889171720    -0.6264216663     1.8655272905
Bq        -3.7860852074    -0.9742834024     1.1451217155
Bq        -3.7892711675    -0.5829389493     1.9555779874
Bq        -3.7857312118    -1.0177661194     1.0550710186
Bq        -3.7875011897    -0.8003525344     1.5053245030
Bq        -3.7876842530    -0.6668184247     1.5518928189
Bq        -3.7869762618    -0.7537838587     1.3717914251
Bq        -3.7880382485    -0.6233357077     1.6419435157
Bq        -3.7866222662    -0.7972665757     1.2817407282
Bq        -3.7883922441    -0.5798529907     1.7319942126
Bq        -3.7862682707    -0.8407492927     1.1916900313
Bq        -3.7887462397    -0.5363702737     1.8220449095
Bq        -3.7859142751    -0.8842320097     1.1016393345
Bq        -3.7891002353    -0.4928875567     1.9120956064
Bq        -3.7855602795    -0.9277147267     1.0115886376
Bq        -3.7873302574    -0.7103011417     1.4618421220
Bq        -3.7875133207    -0.5767670320     1.5084104378
Bq        -3.7868053295    -0.6637324660     1.3283090441
Bq        -3.7878673163    -0.5332843150     1.5984611347
Bq        -3.7864513340    -0.7072151830     1.2382583472
Bq        -3.7882213118    -0.4898015980     1.6885118316
Bq        -3.7860973384    -0.7506979000     1.1482076503
Bq        -3.7885753074    -0.4463188810     1.7785625285
Bq        -3.7857433428    -0.7941806170     1.0581569534

1
2
3
4
5
6
7
8
9
10
11
12
13
14
15
16
17
18
19
20
21
22
23
24
25
26
27
28
29
30
31
32
33
34
35
36
37
38
39
40
41
42
43
44
45
46
47
48
49
50
51
52
53
54
55
56
57
58
59
60
61
62
63
64
65
66
67
68
69
70
71
72
73
74
75
76
77
78
79
80
81
82
83
84
85
86
87
88
89
90
91
92
93
94
95
96
97
98
99
100
101
102
103
104
105
106
107
108
109
110
111
112
113
114
115
116
117
118
119
120
121
122
123
124
125
126
127
128
129
130
131
132
133
134
135
136
137
138
139
140
141
142
143
144
145
146
147
148
149
150
151
152
153
154
155
156
157
158
159
160
161
162
163
164
165
166
167
168
169
170
171
172
173
174
175
176
177
178
179
180
181
182
183
184
185
186
187
188
189
190
191
192
193
194
195
196
197
198
199
200
201
202
203
204
205
206
207
208
209
210
211
212
213
214
215
216
217
218
219
220
221
222
223
224
225
226
227
228
229
230
231
232
233
234
235
236

