%nproc=8
%mem=1000MB
# rb3lyp/6-311+g** NMR geom=connectivity

Title

0 1
C    -4.0500558   -0.5771862    0.8136712
H    -5.0263804   -1.0082727    1.0024760
C    -3.9381552    0.6617804    0.2400876
H    -4.8252424    1.2338890   -0.0111295
C    -2.6768410    1.2433246    0.0057578
C    -1.4974121    0.5051527    0.2848253
C    -1.6508332   -0.7338728    0.9404026
H    -0.7713646   -1.2730967    1.2633753
C    -2.8898548   -1.2624035    1.1994307
H    -2.9683706   -2.2124563    1.7152676
C    -2.5773185    2.5963696   -0.4192930
H    -3.4870728    3.1412239   -0.6474055
C    -1.3741895    3.2147896   -0.4364030
H    -1.2997315    4.2742019   -0.6578144
C    -0.1719488    2.4994090   -0.1734588
C    -0.2043917    1.1018437    0.0192689
C     1.0513491    3.2042560   -0.0676222
H     1.0427344    4.2819499   -0.1896997
C     2.1942091    2.5487446    0.2579577
H     3.1168527    3.0912848    0.4334727
C     2.2216473    1.1336562    0.2934990
C     1.0486931    0.3945528    0.0302412
C     3.4483363    0.4614633    0.5573939
H     4.3095794    1.0606054    0.8334846
C     3.5427346   -0.8855926    0.4749463
H     4.4731467   -1.3939704    0.7038822
C     2.4490052   -1.6474447   -0.0196319
C     1.2150704   -1.0057258   -0.3013573
C     0.2531113   -1.7434440   -1.0216591
H    -0.6541356   -1.2535051   -1.3462847
C     0.4494193   -3.0628597   -1.3413779
H    -0.3083162   -3.5944309   -1.9054060
C     1.6251726   -3.7207967   -0.9552541
H     1.7670048   -4.7687404   -1.1927019
C     2.6109872   -3.0144177   -0.3183050
H     3.5525612   -3.4902813   -0.0646367
Bq         0.1899392856     0.3920140812     0.0106818816
Bq         0.0615449640     0.3208757860     0.4886507521
Bq         0.2156181500     0.4062417402    -0.0849118925
Bq         0.0358660997     0.3066481270     0.5842445262
Bq         0.2412970143     0.4204693992    -0.1805056666
Bq         0.0101872354     0.2924204680     0.6798383003
Bq         0.2669758786     0.4346970583    -0.2760994407
Bq         0.1385815570     0.3635587631     0.2018694298
Bq         0.1092116421     0.4483137981     0.3112037435
Bq         0.1605693708     0.4767691162     0.1200161953
Bq         0.0835327778     0.4340861391     0.4067975176
Bq         0.1862482351     0.4909967752     0.0244224212
Bq         0.0578539135     0.4198584801     0.5023912917
Bq         0.2119270994     0.5052244342    -0.0711713529
Bq         0.0321750492     0.4056308210     0.5979850658
Bq         0.2376059638     0.5194520933    -0.1667651270
Bq         0.0064961848     0.3914031620     0.6935788399
Bq         0.2632848281     0.5336797523    -0.2623589011
Bq         0.1348905065     0.4625414571     0.2156099694
Bq         0.1055205916     0.5472964922     0.3249442830
Bq         0.1568783202     0.5757518102     0.1337567348
Bq         0.0798417273     0.5330688331     0.4205380571
Bq         0.1825571846     0.5899794692     0.0381629607
Bq         0.0541628630     0.5188411741     0.5161318312
Bq         0.2082360489     0.6042071283    -0.0574308133
Bq         0.0284839986     0.5046135151     0.6117256053
Bq         0.2339149132     0.6184347873    -0.1530245874
Bq         0.0028051343     0.4903858560     0.7073193794
Bq         0.2595937775     0.6326624463    -0.2486183615
Bq         0.1311994559     0.5615241512     0.2293505089
Bq         0.1018295411     0.6462791862     0.3386848226
Bq         0.1531872697     0.6747345042     0.1474972744
Bq         0.0761506767     0.6320515272     0.4342785967
Bq         0.1788661340     0.6889621633     0.0519035003
Bq         0.0504718124     0.6178238681     0.5298723708
Bq         0.2045449984     0.7031898223    -0.0436902738
Bq         0.0247929481     0.6035962091     0.6254661449
Bq         0.2302238627     0.7174174813    -0.1392840479
Bq        -0.0008859162     0.5893685501     0.7210599190
Bq         0.2559027270     0.7316451404    -0.2348778220
Bq         0.1275084054     0.6605068452     0.2430910485
Bq         0.0981384905     0.7452618802     0.3524253621
Bq         0.1494962192     0.7737171983     0.1612378140
Bq         0.0724596262     0.7310342212     0.4480191362
Bq         0.1751750835     0.7879448573     0.0656440399
Bq         0.0467807619     0.7168065622     0.5436129103
Bq         0.2008539478     0.8021725163    -0.0299497342
Bq         0.0211018976     0.7025789031     0.6392066844
Bq         0.2265328121     0.8164001754    -0.1255435083
Bq        -0.0045769668     0.6883512441     0.7348004585
Bq         0.2522116765     0.8306278344    -0.2211372824
Bq         0.1238173549     0.7594895393     0.2568315881
Bq         0.0944474400     0.8442445743     0.3661659017
Bq         0.1458051686     0.8726998923     0.1749783535
Bq         0.0687685757     0.8300169152     0.4617596758
Bq         0.1714840330     0.8869275513     0.0793845794
Bq         0.0430897114     0.8157892562     0.5573534499
Bq         0.1971628973     0.9011552104    -0.0162091947
Bq         0.0174108470     0.8015615972     0.6529472240
Bq         0.2228417616     0.9153828694    -0.1118029688
Bq        -0.0082680173     0.7873339381     0.7485409981
Bq         0.2485206259     0.9296105284    -0.2073967429
Bq         0.1201263043     0.8584722333     0.2705721276
Bq         0.0907563895     0.9432272683     0.3799064413
Bq         0.1421141181     0.9716825864     0.1887188931
Bq         0.0650775251     0.9289996093     0.4755002154
Bq         0.1677929824     0.9859102454     0.0931251190
Bq         0.0393986608     0.9147719502     0.5710939895
Bq         0.1934718468     1.0001379044    -0.0024686551
Bq         0.0137197965     0.9005442912     0.6666877635
Bq         0.2191507111     1.0143655634    -0.0980624292
Bq        -0.0119590678     0.8863166322     0.7622815376
Bq         0.2448295754     1.0285932225    -0.1936562033
Bq         0.1164352538     0.9574549273     0.2843126672
Bq         0.0870653389     1.0422099623     0.3936469808
Bq         0.1384230676     1.0706652804     0.2024594326
Bq         0.0613864746     1.0279823033     0.4892407549
Bq         0.1641019319     1.0848929394     0.1068656585
Bq         0.0357076103     1.0137546443     0.5848345290
Bq         0.1897807962     1.0991205984     0.0112718844
Bq         0.0100287460     0.9995269852     0.6804283031
Bq         0.2154596605     1.1133482575    -0.0843218896
Bq        -0.0156501184     0.9852993262     0.7760220772
Bq         0.2411385249     1.1275759165    -0.1799156637
Bq         0.1127442032     1.0564376214     0.2980532067
Bq         0.0833742884     1.1411926564     0.4073875204
Bq         0.1347320170     1.1696479744     0.2161999722
Bq         0.0576954241     1.1269649973     0.5029812945
Bq         0.1604108814     1.1838756335     0.1206061981
Bq         0.0320165597     1.1127373383     0.5985750686
Bq         0.1860897457     1.1981032925     0.0250124240
Bq         0.0063376954     1.0985096793     0.6941688427
Bq         0.2117686100     1.2123309515    -0.0705813501
Bq        -0.0193411689     1.0842820203     0.7897626168
Bq         0.2374474743     1.2265586105    -0.1661751242
Bq         0.1090531527     1.1554203154     0.3117937463
Bq         0.0796832379     1.2401753504     0.4211280599
Bq         0.1310409665     1.2686306685     0.2299405118
Bq         0.0540043735     1.2259476914     0.5167218340
Bq         0.1567198308     1.2828583275     0.1343467377
Bq         0.0283255092     1.2117200323     0.6123156081
Bq         0.1823986951     1.2970859865     0.0387529636
Bq         0.0026466449     1.1974923733     0.7079093822
Bq         0.2080775595     1.3113136455    -0.0568408105
Bq        -0.0230322194     1.1832647143     0.8035031563
Bq         0.2337564238     1.3255413046    -0.1524345846
Bq         0.1053621022     1.2544030094     0.3255342858
Bq         0.0759921873     1.3391580444     0.4348685995
Bq         0.1273499160     1.3676133625     0.2436810513
Bq         0.0503133230     1.3249303854     0.5304623736
Bq         0.1530287803     1.3818410215     0.1480872772
Bq         0.0246344587     1.3107027264     0.6260561477
Bq         0.1787076446     1.3960686806     0.0524935031
Bq        -0.0010444056     1.2964750674     0.7216499218
Bq         0.2043865089     1.4102963396    -0.0431002710
Bq        -0.0267232700     1.2822474083     0.8172436959
Bq         0.2300653733     1.4245239986    -0.1386940451
Bq         0.1016710516     1.3533857035     0.3392748254
Bq         0.0723011368     1.4381407385     0.4486091391
Bq         0.1236588654     1.4665960565     0.2574215909
Bq         0.0466222725     1.4239130794     0.5442029132
Bq         0.1493377298     1.4808237156     0.1618278168
Bq         0.0209434081     1.4096854204     0.6397966872
Bq         0.1750165941     1.4950513746     0.0662340427
Bq        -0.0047354562     1.3954577614     0.7353904613
Bq         0.2006954584     1.5092790336    -0.0293597314
Bq        -0.0304143205     1.3812301024     0.8309842354
Bq         0.2263743227     1.5235066926    -0.1249535055
Bq         0.0979800011     1.4523683975     0.3530153650
Bq         0.0686100862     1.5371234325     0.4623496786
Bq         0.1199678149     1.5655787506     0.2711621304
Bq         0.0429312219     1.5228957735     0.5579434527
Bq         0.1456466792     1.5798064096     0.1755683563
Bq         0.0172523576     1.5086681145     0.6535372268
Bq         0.1713255435     1.5940340686     0.0799745822
Bq        -0.0084265067     1.4944404554     0.7491310009
Bq         0.1970044079     1.6082617277    -0.0156191919
Bq        -0.0341053710     1.4802127964     0.8447247750
Bq         0.2226832722     1.6224893867    -0.1112129659
Bq         0.0942889506     1.5513510915     0.3667559045
Bq         0.0649190357     1.6361061265     0.4760902182
Bq         0.1162767644     1.6645614446     0.2849026700
Bq         0.0392401714     1.6218784675     0.5716839923
Bq         0.1419556287     1.6787891036     0.1893088959
Bq         0.0135613071     1.6076508085     0.6672777664
Bq         0.1676344930     1.6930167627     0.0937151218
Bq        -0.0121175573     1.5934231495     0.7628715405
Bq         0.1933133573     1.7072444217    -0.0018786523
Bq        -0.0377964216     1.5791954904     0.8584653146
Bq         0.2189922216     1.7214720807    -0.0974724264
Bq         0.0905979000     1.6503337856     0.3804964441
Bq         0.0612279852     1.7350888206     0.4898307577
Bq         0.1125857138     1.7635441386     0.2986432095
Bq         0.0355491209     1.7208611616     0.5854245318
Bq         0.1382645781     1.7777717977     0.2030494355
Bq         0.0098702565     1.7066335025     0.6810183059
Bq         0.1639434425     1.7919994567     0.1074556614
Bq        -0.0158086078     1.6924058435     0.7766120800
Bq         0.1896223068     1.8062271157     0.0118618873
Bq        -0.0414874721     1.6781781845     0.8722058541
Bq         0.2153011711     1.8204547748    -0.0837318868
Bq         0.0869068495     1.7493164796     0.3942369836
Bq         0.0575369346     1.8340715146     0.5035712973
Bq         0.1088946633     1.8625268327     0.3123837491
Bq         0.0318580703     1.8198438556     0.5991650714
Bq         0.1345735276     1.8767544917     0.2167899750
Bq         0.0061792060     1.8056161966     0.6947588455
Bq         0.1602523919     1.8909821507     0.1211962009
Bq        -0.0194996583     1.7913885375     0.7903526196
Bq         0.1859312563     1.9052098098     0.0256024268
Bq        -0.0451785226     1.7771608785     0.8859463937
Bq         0.2116101206     1.9194374688    -0.0699913473
Bq         0.0832157990     1.8482991736     0.4079775232
Bq         0.0538458841     1.9330542087     0.5173118369
Bq         0.1052036128     1.9615095267     0.3261242887
Bq         0.0281670198     1.9188265496     0.6129056109
Bq         0.1308824771     1.9757371857     0.2305305146
Bq         0.0024881555     1.9045988906     0.7084993850
Bq         0.1565613414     1.9899648448     0.1349367405
Bq        -0.0231907089     1.8903712316     0.8040931591
Bq         0.1822402057     2.0041925038     0.0393429664
Bq        -0.0488695732     1.8761435725     0.8996869332
Bq         0.2079190700     2.0184201628    -0.0562508077
Bq         0.0795247484     1.9472818677     0.4217180628
Bq         0.0501548336     2.0320369027     0.5310523764
Bq         0.1015125622     2.0604922207     0.3398648282
Bq         0.0244759692     2.0178092437     0.6266461505
Bq         0.1271914265     2.0747198798     0.2442710541
Bq        -0.0012028951     2.0035815846     0.7222399246
Bq         0.1528702909     2.0889475388     0.1486772800
Bq        -0.0268817594     1.9893539256     0.8178336987
Bq         0.1785491552     2.1031751978     0.0530835059
Bq        -0.0525606237     1.9751262666     0.9134274728
Bq         0.2042280195     2.1174028569    -0.0425102682
Bq         0.0758336979     2.0462645617     0.4354586023
Bq         0.0464637830     2.1310195967     0.5447929160
Bq         0.0978215117     2.1594749148     0.3536053678
Bq         0.0207849187     2.1167919377     0.6403866901
Bq         0.1235003760     2.1737025738     0.2580115937
Bq        -0.0048939456     2.1025642787     0.7359804642

1
2
3
4
5
6
7
8
9
10
11
12
13
14
15
16
17
18
19
20
21
22
23
24
25
26
27
28
29
30
31
32
33
34
35
36
37
38
39
40
41
42
43
44
45
46
47
48
49
50
51
52
53
54
55
56
57
58
59
60
61
62
63
64
65
66
67
68
69
70
71
72
73
74
75
76
77
78
79
80
81
82
83
84
85
86
87
88
89
90
91
92
93
94
95
96
97
98
99
100
101
102
103
104
105
106
107
108
109
110
111
112
113
114
115
116
117
118
119
120
121
122
123
124
125
126
127
128
129
130
131
132
133
134
135
136
137
138
139
140
141
142
143
144
145
146
147
148
149
150
151
152
153
154
155
156
157
158
159
160
161
162
163
164
165
166
167
168
169
170
171
172
173
174
175
176
177
178
179
180
181
182
183
184
185
186
187
188
189
190
191
192
193
194
195
196
197
198
199
200
201
202
203
204
205
206
207
208
209
210
211
212
213
214
215
216
217
218
219
220
221
222
223
224
225
226
227
228
229
230
231
232
233
234
235
236

