%nproc=8
%mem=1000MB
# rb3lyp/6-311+g** NMR geom=connectivity

Title

0 1
C    -4.0500558   -0.5771862    0.8136712
H    -5.0263804   -1.0082727    1.0024760
C    -3.9381552    0.6617804    0.2400876
H    -4.8252424    1.2338890   -0.0111295
C    -2.6768410    1.2433246    0.0057578
C    -1.4974121    0.5051527    0.2848253
C    -1.6508332   -0.7338728    0.9404026
H    -0.7713646   -1.2730967    1.2633753
C    -2.8898548   -1.2624035    1.1994307
H    -2.9683706   -2.2124563    1.7152676
C    -2.5773185    2.5963696   -0.4192930
H    -3.4870728    3.1412239   -0.6474055
C    -1.3741895    3.2147896   -0.4364030
H    -1.2997315    4.2742019   -0.6578144
C    -0.1719488    2.4994090   -0.1734588
C    -0.2043917    1.1018437    0.0192689
C     1.0513491    3.2042560   -0.0676222
H     1.0427344    4.2819499   -0.1896997
C     2.1942091    2.5487446    0.2579577
H     3.1168527    3.0912848    0.4334727
C     2.2216473    1.1336562    0.2934990
C     1.0486931    0.3945528    0.0302412
C     3.4483363    0.4614633    0.5573939
H     4.3095794    1.0606054    0.8334846
C     3.5427346   -0.8855926    0.4749463
H     4.4731467   -1.3939704    0.7038822
C     2.4490052   -1.6474447   -0.0196319
C     1.2150704   -1.0057258   -0.3013573
C     0.2531113   -1.7434440   -1.0216591
H    -0.6541356   -1.2535051   -1.3462847
C     0.4494193   -3.0628597   -1.3413779
H    -0.3083162   -3.5944309   -1.9054060
C     1.6251726   -3.7207967   -0.9552541
H     1.7670048   -4.7687404   -1.1927019
C     2.6109872   -3.0144177   -0.3183050
H     3.5525612   -3.4902813   -0.0646367
Bq        -3.2182723912     3.6308719298    -0.1239147094
Bq        -3.2211414183     3.7523610792    -0.0515810707
Bq        -3.2134574556     3.7032624444    -0.2453084069
Bq        -3.2249833996     3.7769103965     0.0452825974
Bq        -3.2096154743     3.6787131270    -0.3421720750
Bq        -3.2288253809     3.8014597139     0.1421462655
Bq        -3.2057734929     3.6541638097    -0.4390357431
Bq        -3.2326673622     3.8260090313     0.2390099336
Bq        -3.2019315116     3.6296144923    -0.5358994112
Bq        -3.2365093436     3.8505583487     0.3358736017
Bq        -3.1980895303     3.6050651749    -0.6327630792
Bq        -3.2172994369     3.7278117618    -0.1484447388
Bq        -3.2201684640     3.8493009111    -0.0761111001
Bq        -3.2124845014     3.8002022763    -0.2698384363
Bq        -3.2240104454     3.8738502285     0.0207525680
Bq        -3.2086425200     3.7756529590    -0.3667021044
Bq        -3.2278524267     3.8983995458     0.1176162361
Bq        -3.2048005387     3.7511036416    -0.4635657725
Bq        -3.2316944080     3.9229488632     0.2144799041
Bq        -3.2009585574     3.7265543242    -0.5604294406
Bq        -3.2355363894     3.9474981806     0.3113435722
Bq        -3.1971165761     3.7020050068    -0.6572931087
Bq        -3.2163264827     3.8247515937    -0.1729747682
Bq        -3.2191955098     3.9462407430    -0.1006411296
Bq        -3.2115115472     3.8971421083    -0.2943684657
Bq        -3.2230374911     3.9707900604    -0.0037774615
Bq        -3.2076695658     3.8725927909    -0.3912321338
Bq        -3.2268794725     3.9953393778     0.0930862066
Bq        -3.2038275845     3.8480434735    -0.4880958019
Bq        -3.2307214538     4.0198886952     0.1899498747
Bq        -3.1999856032     3.8234941562    -0.5849594700
Bq        -3.2345634351     4.0444380125     0.2868135428
Bq        -3.1961436218     3.7989448388    -0.6818231381
Bq        -3.2153535285     3.9216914257    -0.1975047976
Bq        -3.2182225556     4.0431805750    -0.1251711590
Bq        -3.2105385929     3.9940819402    -0.3188984952
Bq        -3.2220645369     4.0677298924    -0.0283074909
Bq        -3.2066966116     3.9695326228    -0.4157621633
Bq        -3.2259065182     4.0922792097     0.0685561772
Bq        -3.2028546303     3.9449833055    -0.5126258313
Bq        -3.2297484996     4.1168285271     0.1654198453
Bq        -3.1990126489     3.9204339881    -0.6094894994
Bq        -3.2335904809     4.1413778445     0.2622835134
Bq        -3.1951706676     3.8958846707    -0.7063531675
Bq        -3.2143805743     4.0186312576    -0.2220348271
Bq        -3.2172496014     4.1401204069    -0.1497011884
Bq        -3.2095656387     4.0910217722    -0.3434285246
Bq        -3.2210915827     4.1646697243    -0.0528375203
Bq        -3.2057236574     4.0664724548    -0.4402921927
Bq        -3.2249335640     4.1892190417     0.0440261478
Bq        -3.2018816760     4.0419231374    -0.5371558608
Bq        -3.2287755454     4.2137683590     0.1408898159
Bq        -3.1980396947     4.0173738200    -0.6340195289
Bq        -3.2326175267     4.2383176764     0.2377534839
Bq        -3.1941977134     3.9928245027    -0.7308831970
Bq        -3.2134076200     4.1155710895    -0.2465648565
Bq        -3.2162766471     4.2370602389    -0.1742312178
Bq        -3.2085926845     4.1879616041    -0.3679585540
Bq        -3.2201186285     4.2616095562    -0.0773675497
Bq        -3.2047507032     4.1634122867    -0.4648222221
Bq        -3.2239606098     4.2861588736     0.0194961183
Bq        -3.2009087218     4.1388629694    -0.5616858902
Bq        -3.2278025911     4.3107081910     0.1163597864
Bq        -3.1970667405     4.1143136520    -0.6585495583
Bq        -3.2316445725     4.3352575084     0.2132234545
Bq        -3.1932247592     4.0897643346    -0.7554132264
Bq        -3.2124346658     4.2125109215    -0.2710948859
Bq        -3.2153036929     4.3340000708    -0.1987612473
Bq        -3.2076197303     4.2849014360    -0.3924885834
Bq        -3.2191456742     4.3585493882    -0.1018975792
Bq        -3.2037777489     4.2603521187    -0.4893522515
Bq        -3.2229876556     4.3830987055    -0.0050339111
Bq        -3.1999357676     4.2358028013    -0.5862159196
Bq        -3.2268296369     4.4076480229     0.0918297570
Bq        -3.1960937863     4.2112534839    -0.6830795877
Bq        -3.2306716182     4.4321973403     0.1886934251
Bq        -3.1922518049     4.1867041665    -0.7799432558
Bq        -3.2114617116     4.3094507534    -0.2956249154
Bq        -3.2143307387     4.4309399027    -0.2232912767
Bq        -3.2066467760     4.3818412680    -0.4170186129
Bq        -3.2181727200     4.4554892201    -0.1264276086
Bq        -3.2028047947     4.3572919506    -0.5138822810
Bq        -3.2220147013     4.4800385375    -0.0295639405
Bq        -3.1989628134     4.3327426332    -0.6107459491
Bq        -3.2258566827     4.5045878549     0.0672997276
Bq        -3.1951208320     4.3081933159    -0.7076096171
Bq        -3.2296986640     4.5291371722     0.1641633957
Bq        -3.1912788507     4.2836439985    -0.8044732852
Bq        -3.2104887574     4.4063905854    -0.3201549448
Bq        -3.1630570181    -0.4160516942     1.0071734585
Bq        -3.1553730554    -0.4651503290     0.8134461223
Bq        -3.1668989994    -0.3915023768     1.1040371266
Bq        -3.1515310741    -0.4896996464     0.7165824543
Bq        -3.1707409807    -0.3669530595     1.2009007947
Bq        -3.1476890928    -0.5142489637     0.6197187862
Bq        -3.1745829621    -0.3424037421     1.2977644628
Bq        -3.1438471114    -0.5387982811     0.5228551181
Bq        -3.1784249434    -0.3178544247     1.3946281309
Bq        -3.1400051301    -0.5633475985     0.4259914500
Bq        -3.1592150367    -0.4406010116     0.9103097904
Bq        -3.1620840639    -0.3191118623     0.9826434291
Bq        -3.1544001012    -0.3682104970     0.7889160929
Bq        -3.1659260452    -0.2945625449     1.0795070972
Bq        -3.1505581199    -0.3927598144     0.6920524248
Bq        -3.1697680265    -0.2700132275     1.1763707653
Bq        -3.1467161385    -0.4173091318     0.5951887567
Bq        -3.1736100078    -0.2454639102     1.2732344334
Bq        -3.1428741572    -0.4418584492     0.4983250887
Bq        -3.1774519892    -0.2209145928     1.3700981015
Bq        -3.1390321759    -0.4664077665     0.4014614206
Bq        -3.1582420825    -0.3436611797     0.8857797610
Bq        -3.1611111096    -0.2221720303     0.9581133997
Bq        -3.1534271470    -0.2712706651     0.7643860635
Bq        -3.1649530910    -0.1976227130     1.0549770678
Bq        -3.1495851656    -0.2958199825     0.6675223954
Bq        -3.1687950723    -0.1730733956     1.1518407359
Bq        -3.1457431843    -0.3203692998     0.5706587273
Bq        -3.1726370536    -0.1485240782     1.2487044039
Bq        -3.1419012030    -0.3449186172     0.4737950592
Bq        -3.1764790349    -0.1239747608     1.3455680720
Bq        -3.1380592217    -0.3694679346     0.3769313911
Bq        -3.1572691283    -0.2467213477     0.8612497316
Bq        -3.1601381554    -0.1252321984     0.9335833702
Bq        -3.1524541927    -0.1743308332     0.7398560341
Bq        -3.1639801367    -0.1006828810     1.0304470383
Bq        -3.1486122114    -0.1988801505     0.6429923660
Bq        -3.1678221181    -0.0761335637     1.1273107064
Bq        -3.1447702301    -0.2234294679     0.5461286979
Bq        -3.1716640994    -0.0515842463     1.2241743745
Bq        -3.1409282488    -0.2479787853     0.4492650298
Bq        -3.1755060807    -0.0270349289     1.3210380426
Bq        -3.1370862674    -0.2725281027     0.3524013617
Bq        -3.1562961741    -0.1497815158     0.8367197022
Bq        -3.1591652012    -0.0282923665     0.9090533408
Bq        -3.1514812385    -0.0773910012     0.7153260046
Bq        -3.1630071825    -0.0037430491     1.0059170089
Bq        -3.1476392572    -0.1019403186     0.6184623366
Bq        -3.1668491638     0.0208062683     1.1027806770
Bq        -3.1437972759    -0.1264896360     0.5215986685
Bq        -3.1706911452     0.0453555857     1.1996443451
Bq        -3.1399552945    -0.1510389533     0.4247350004
Bq        -3.1745331265     0.0699049030     1.2965080132
Bq        -3.1361133132    -0.1755882707     0.3278713323
Bq        -3.1553232199    -0.0528416838     0.8121896727
Bq        -3.1581922470     0.0686474655     0.8845233114
Bq        -3.1505082843     0.0195488307     0.6907959752
Bq        -3.1620342283     0.0931967828     0.9813869795
Bq        -3.1466663030    -0.0050004867     0.5939323071
Bq        -3.1658762096     0.1177461002     1.0782506476
Bq        -3.1428243216    -0.0295498040     0.4970686390
Bq        -3.1697181909     0.1422954176     1.1751143157
Bq        -3.1389823403    -0.0540991214     0.4002049709
Bq        -3.1735601723     0.1668447350     1.2719779838
Bq        -3.1351403590    -0.0786484388     0.3033413029
Bq        -3.1543502656     0.0440981481     0.7876596433
Bq        -3.1572192927     0.1655872974     0.8599932820
Bq        -3.1495353301     0.1164886627     0.6662659458
Bq        -3.1610612741     0.1901366148     0.9568569501
Bq        -3.1456933487     0.0919393453     0.5694022777
Bq        -3.1649032554     0.2146859322     1.0537206181
Bq        -3.1418513674     0.0673900279     0.4725386096
Bq        -3.1687452367     0.2392352495     1.1505842862
Bq        -3.1380093861     0.0428407105     0.3756749415
Bq        -3.1725872180     0.2637845669     1.2474479543
Bq        -3.1341674048     0.0182913932     0.2788112734
Bq        -3.1533773114     0.1410379800     0.7631296139
Bq        -3.1562463385     0.2625271294     0.8354632525
Bq        -3.1485623758     0.2134284946     0.6417359164
Bq        -3.1600883198     0.2870764467     0.9323269206
Bq        -3.1447203945     0.1888791772     0.5448722483
Bq        -3.1639303012     0.3116257641     1.0291905887
Bq        -3.1408784132     0.1643298598     0.4480085802
Bq        -3.1677722825     0.3361750815     1.1260542568
Bq        -3.1370364319     0.1397805425     0.3511449121
Bq        -3.1716142638     0.3607243989     1.2229179249
Bq        -3.1331944505     0.1152312251     0.2542812440
Bq        -3.1524043572     0.2379778120     0.7385995844
Bq        -3.1552733843     0.3594669613     0.8109332231
Bq        -3.1475894216     0.3103683265     0.6172058869
Bq        -3.1591153656     0.3840162787     0.9077968912
Bq        -3.1437474403     0.2858190092     0.5203422188
Bq        -3.1629573469     0.4085655960     1.0046605593
Bq        -3.1399054590     0.2612696918     0.4234785508
Bq        -3.1667993283     0.4331149134     1.1015242274
Bq        -3.1360634776     0.2367203744     0.3266148827
Bq        -3.1706413096     0.4576642308     1.1983878955
Bq        -3.1322214963     0.2121710570     0.2297512146
Bq        -3.1514314030     0.3349176439     0.7140695550
Bq        -3.1543004301     0.4564067932     0.7864031937
Bq        -3.1466164674     0.4073081585     0.5926758575
Bq        -3.1581424114     0.4809561106     0.8832668618
Bq        -3.1427744861     0.3827588411     0.4958121894
Bq        -3.1619843927     0.5055054280     0.9801305299
Bq        -3.1389325047     0.3582095237     0.3989485213
Bq        -3.1658263740     0.5300547454     1.0769941980
Bq        -3.1350905234     0.3336602064     0.3020848532
Bq        -3.1696683554     0.5546040627     1.1738578660
Bq        -3.1312485421     0.3091108890     0.2052211851
Bq        -3.1504584487     0.4318574759     0.6895395256
Bq        -3.1533274758     0.5533466252     0.7618731643

1
2
3
4
5
6
7
8
9
10
11
12
13
14
15
16
17
18
19
20
21
22
23
24
25
26
27
28
29
30
31
32
33
34
35
36
37
38
39
40
41
42
43
44
45
46
47
48
49
50
51
52
53
54
55
56
57
58
59
60
61
62
63
64
65
66
67
68
69
70
71
72
73
74
75
76
77
78
79
80
81
82
83
84
85
86
87
88
89
90
91
92
93
94
95
96
97
98
99
100
101
102
103
104
105
106
107
108
109
110
111
112
113
114
115
116
117
118
119
120
121
122
123
124
125
126
127
128
129
130
131
132
133
134
135
136
137
138
139
140
141
142
143
144
145
146
147
148
149
150
151
152
153
154
155
156
157
158
159
160
161
162
163
164
165
166
167
168
169
170
171
172
173
174
175
176
177
178
179
180
181
182
183
184
185
186
187
188
189
190
191
192
193
194
195
196
197
198
199
200
201
202
203
204
205
206
207
208
209
210
211
212
213
214
215
216
217
218
219
220
221
222
223
224
225
226
227
228
229
230
231
232
233
234
235
236

