%nproc=8
%mem=1000MB
# rb3lyp/6-311+g** NMR geom=connectivity

Title

0 1
C    -4.0500558   -0.5771862    0.8136712
H    -5.0263804   -1.0082727    1.0024760
C    -3.9381552    0.6617804    0.2400876
H    -4.8252424    1.2338890   -0.0111295
C    -2.6768410    1.2433246    0.0057578
C    -1.4974121    0.5051527    0.2848253
C    -1.6508332   -0.7338728    0.9404026
H    -0.7713646   -1.2730967    1.2633753
C    -2.8898548   -1.2624035    1.1994307
H    -2.9683706   -2.2124563    1.7152676
C    -2.5773185    2.5963696   -0.4192930
H    -3.4870728    3.1412239   -0.6474055
C    -1.3741895    3.2147896   -0.4364030
H    -1.2997315    4.2742019   -0.6578144
C    -0.1719488    2.4994090   -0.1734588
C    -0.2043917    1.1018437    0.0192689
C     1.0513491    3.2042560   -0.0676222
H     1.0427344    4.2819499   -0.1896997
C     2.1942091    2.5487446    0.2579577
H     3.1168527    3.0912848    0.4334727
C     2.2216473    1.1336562    0.2934990
C     1.0486931    0.3945528    0.0302412
C     3.4483363    0.4614633    0.5573939
H     4.3095794    1.0606054    0.8334846
C     3.5427346   -0.8855926    0.4749463
H     4.4731467   -1.3939704    0.7038822
C     2.4490052   -1.6474447   -0.0196319
C     1.2150704   -1.0057258   -0.3013573
C     0.2531113   -1.7434440   -1.0216591
H    -0.6541356   -1.2535051   -1.3462847
C     0.4494193   -3.0628597   -1.3413779
H    -0.3083162   -3.5944309   -1.9054060
C     1.6251726   -3.7207967   -0.9552541
H     1.7670048   -4.7687404   -1.1927019
C     2.6109872   -3.0144177   -0.3183050
H     3.5525612   -3.4902813   -0.0646367
Bq        -3.0843074091     1.8049659358     0.6942547303
Bq        -3.0814754445     1.4571041997    -0.0261508448
Bq        -3.0846614047     1.8484486528     0.7843054271
Bq        -3.0811214490     1.4136214827    -0.1162015417
Bq        -3.0828914268     1.6310350678     0.3340519427
Bq        -3.0830744901     1.7645691774     0.3806202586
Bq        -3.0823664990     1.6776037434     0.2005188648
Bq        -3.0834284857     1.8080518944     0.4706709555
Bq        -3.0820125034     1.6341210264     0.1104681679
Bq        -3.0837824813     1.8515346114     0.5607216523
Bq        -3.0816585078     1.5906383094     0.0204174711
Bq        -3.0841364769     1.8950173284     0.6507723492
Bq        -3.0813045123     1.5471555924    -0.0696332258
Bq        -3.0844904724     1.9385000454     0.7408230461
Bq        -3.0809505167     1.5036728754    -0.1596839227
Bq        -3.0827204946     1.7210864604     0.2905695617
Bq        -3.0829035579     1.8546205701     0.3371378776
Bq        -3.0821955667     1.7676551361     0.1570364838
Bq        -3.0832575534     1.8981032871     0.4271885744
Bq        -3.0818415711     1.7241724191     0.0669857869
Bq        -3.0836115490     1.9415860041     0.5172392713
Bq        -3.0814875756     1.6806897021    -0.0230649100
Bq        -3.0839655446     1.9850687211     0.6072899682
Bq        -3.0811335800     1.6372069851    -0.1131156069
Bq        -3.0843195402     2.0285514381     0.6973406651
Bq        -3.0807795844     1.5937242681    -0.2031663037
Bq        -3.0825495623     1.8111378531     0.2470871807
Bq        -3.0827326256     1.9446719628     0.2936554965
Bq        -3.0820246344     1.8577065288     0.1135541028
Bq        -3.0830866212     1.9881546798     0.3837061934
Bq        -3.0816706389     1.8142238118     0.0235034059
Bq        -3.0834406167     2.0316373968     0.4737568903
Bq        -3.0813166433     1.7707410947    -0.0665472910
Bq        -3.0837946123     2.0751201138     0.5638075872
Bq        -3.0809626477     1.7272583777    -0.1565979879
Bq        -3.0841486079     2.1186028308     0.6538582840
Bq        -3.0806086521     1.6837756607    -0.2466486848
Bq        -3.0823786300     1.9011892458     0.2036047996
Bq        -3.0825616933     2.0347233554     0.2501731155
Bq        -3.0818537022     1.9477579214     0.0700717217
Bq        -3.0829156889     2.0782060724     0.3402238124
Bq        -3.0814997066     1.9042752044    -0.0199789752
Bq        -3.0832696845     2.1216887894     0.4302745093
Bq        -3.0811457110     1.8607924874    -0.1100296720
Bq        -3.0836236800     2.1651715065     0.5203252061
Bq        -3.0807917154     1.8173097704    -0.2000803689
Bq        -3.0839776756     2.2086542235     0.6103759030
Bq        -3.0804377199     1.7738270534    -0.2901310658
Bq        -3.0822076977     1.9912406384     0.1601224186
Bq        -3.0823907610     2.1247747481     0.2066907345
Bq        -3.0816827699     2.0378093141     0.0265893407
Bq        -3.0827447566     2.1682574651     0.2967414313
Bq        -3.0813287743     1.9943265971    -0.0634613562
Bq        -3.0830987522     2.2117401821     0.3867921282
Bq        -3.0809747787     1.9508438801    -0.1535120531
Bq        -3.0834527478     2.2552228991     0.4768428251
Bq        -3.0806207832     1.9073611631    -0.2435627500
Bq        -3.0838067433     2.2987056161     0.5668935220
Bq        -3.0802667876     1.8638784461    -0.3336134468
Bq        -3.0820367655     2.0812920311     0.1166400376
Bq        -3.0822198288     2.2148261408     0.1632083534
Bq        -3.0815118376     2.1278607068    -0.0168930403
Bq        -3.0825738243     2.2583088578     0.2532590503
Bq        -3.0811578420     2.0843779898    -0.1069437372
Bq        -3.0829278199     2.3017915748     0.3433097472
Bq        -3.0808038465     2.0408952728    -0.1969944341
Bq        -3.0832818155     2.3452742918     0.4333604441
Bq        -3.0804498509     1.9974125558    -0.2870451310
Bq        -3.0836358111     2.3887570088     0.5234111410
Bq        -3.0800958553     1.9539298388    -0.3770958279
Bq        -3.0818658332     2.1713434238     0.0731576565
Bq        -3.0820488965     2.3048775334     0.1197259724
Bq        -3.0813409053     2.2179120994    -0.0603754214
Bq        -3.0824028921     2.3483602505     0.2097766693
Bq        -3.0809869098     2.1744293824    -0.1504261183
Bq        -3.0827568876     2.3918429675     0.2998273662
Bq        -3.0806329142     2.1309466654    -0.2404768151
Bq        -3.0831108832     2.4353256845     0.3898780630
Bq        -3.0802789186     2.0874639484    -0.3305275120
Bq        -3.0834648788     2.4788084015     0.4799287599
Bq        -3.0799249230     2.0439812314    -0.4205782089
Bq        -3.0816949009     2.2613948164     0.0296752755
Bq        -3.0818779642     2.3949289261     0.0762435914
Bq        -3.0811699731     2.3079634921    -0.1038578024
Bq        -3.0822319598     2.4384116431     0.1662942882
Bq        -3.0808159775     2.2644807751    -0.1939084993
Bq        -3.0825859554     2.4818943601     0.2563449851
Bq        -3.0804619819     2.2209980581    -0.2839591962
Bq        -3.0829399509     2.5253770771     0.3463956820
Bq        -3.0801079863     2.1775153411    -0.3740098931
Bq        -3.0832939465     2.5688597941     0.4364463789
Bq        -3.0797539908     2.1340326241    -0.4640605899
Bq        -3.0815239686     2.3514462091    -0.0138071055
Bq        -3.0817070319     2.4849803188     0.0327612103
Bq        -3.0809990408     2.3980148848    -0.1473401834
Bq        -3.0820610275     2.5284630358     0.1228119072
Bq        -3.0806450452     2.3545321678    -0.2373908803
Bq        -3.0824150231     2.5719457528     0.2128626041
Bq        -3.0802910496     2.3110494508    -0.3274415772
Bq        -3.0827690187     2.6154284698     0.3029133010
Bq        -3.0799370541     2.2675667338    -0.4174922741
Bq        -3.0831230142     2.6589111868     0.3929639979
Bq        -3.0795830585     2.2240840168    -0.5075429710
Bq        -3.0813530364     2.4414976018    -0.0572894866
Bq        -2.9902544183    -2.0175893147     2.2072733659
Bq        -2.9895464272    -2.1045547487     2.0271719721
Bq        -2.9906084139    -1.9741065977     2.2973240628
Bq        -2.9891924316    -2.1480374658     1.9371212752
Bq        -2.9909624095    -1.9306238807     2.3873747597
Bq        -2.9888384360    -2.1915201828     1.8470705784
Bq        -2.9913164051    -1.8871411637     2.4774254565
Bq        -2.9884844405    -2.2350028998     1.7570198815
Bq        -2.9916704006    -1.8436584467     2.5674761534
Bq        -2.9881304449    -2.2784856168     1.6669691846
Bq        -2.9899004228    -2.0610720317     2.1172226690
Bq        -2.9900834861    -1.9275379221     2.1637909849
Bq        -2.9893754949    -2.0145033561     1.9836895911
Bq        -2.9904374816    -1.8840552051     2.2538416817
Bq        -2.9890214993    -2.0579860731     1.8936388942
Bq        -2.9907914772    -1.8405724881     2.3438923786
Bq        -2.9886675038    -2.1014687901     1.8035881973
Bq        -2.9911454728    -1.7970897711     2.4339430755
Bq        -2.9883135082    -2.1449515071     1.7135375004
Bq        -2.9914994684    -1.7536070540     2.5239937724
Bq        -2.9879595126    -2.1884342241     1.6234868036
Bq        -2.9897294905    -1.9710206391     2.0737402880
Bq        -2.9899125538    -1.8374865294     2.1203086038
Bq        -2.9892045626    -1.9244519634     1.9402072101
Bq        -2.9902665494    -1.7940038124     2.2103593007
Bq        -2.9888505671    -1.9679346804     1.8501565132
Bq        -2.9906205449    -1.7505210954     2.3004099976
Bq        -2.9884965715    -2.0114173974     1.7601058163
Bq        -2.9909745405    -1.7070383784     2.3904606945
Bq        -2.9881425759    -2.0549001144     1.6700551194
Bq        -2.9913285361    -1.6635556614     2.4805113914
Bq        -2.9877885803    -2.0983828314     1.5800044225
Bq        -2.9895585582    -1.8809692464     2.0302579069
Bq        -2.9897416215    -1.7474351367     2.0768262228
Bq        -2.9890336304    -1.8344005707     1.8967248290
Bq        -2.9900956171    -1.7039524197     2.1668769197
Bq        -2.9886796348    -1.8778832877     1.8066741321
Bq        -2.9904496127    -1.6604697027     2.2569276166
Bq        -2.9883256392    -1.9213660047     1.7166234353
Bq        -2.9908036082    -1.6169869857     2.3469783134
Bq        -2.9879716436    -1.9648487217     1.6265727384
Bq        -2.9911576038    -1.5735042687     2.4370290103
Bq        -2.9876176481    -2.0083314388     1.5365220415
Bq        -2.9893876259    -1.7909178537     1.9867755259
Bq        -2.9895706892    -1.6573837441     2.0333438418
Bq        -2.9888626981    -1.7443491781     1.8532424480
Bq        -2.9899246848    -1.6139010270     2.1233945386
Bq        -2.9885087025    -1.7878318951     1.7631917511
Bq        -2.9902786804    -1.5704183100     2.2134452355
Bq        -2.9881547069    -1.8313146121     1.6731410542
Bq        -2.9906326760    -1.5269355930     2.3034959324
Bq        -2.9878007114    -1.8747973291     1.5830903573
Bq        -2.9909866715    -1.4834528760     2.3935466293
Bq        -2.9874467158    -1.9182800461     1.4930396605
Bq        -2.9892166937    -1.7008664611     1.9432931449
Bq        -2.9893997570    -1.5673323514     1.9898614607
Bq        -2.9886917658    -1.6542977854     1.8097600670
Bq        -2.9897537525    -1.5238496344     2.0799121576
Bq        -2.9883377702    -1.6977805024     1.7197093701
Bq        -2.9901077481    -1.4803669174     2.1699628545
Bq        -2.9879837747    -1.7412632194     1.6296586732
Bq        -2.9904617437    -1.4368842004     2.2600135514
Bq        -2.9876297791    -1.7847459364     1.5396079763
Bq        -2.9908157393    -1.3934014834     2.3500642483
Bq        -2.9872757835    -1.8282286534     1.4495572794
Bq        -2.9890457614    -1.6108150684     1.8998107638
Bq        -2.9892288247    -1.4772809587     1.9463790797
Bq        -2.9885208335    -1.5642463927     1.7662776859
Bq        -2.9895828203    -1.4337982417     2.0364297766
Bq        -2.9881668380    -1.6077291097     1.6762269890
Bq        -2.9899368158    -1.3903155247     2.1264804735
Bq        -2.9878128424    -1.6512118267     1.5861762922
Bq        -2.9902908114    -1.3468328077     2.2165311703
Bq        -2.9874588468    -1.6946945437     1.4961255953
Bq        -2.9906448070    -1.3033500907     2.3065818672
Bq        -2.9871048512    -1.7381772607     1.4060748984
Bq        -2.9888748291    -1.5207636757     1.8563283828
Bq        -2.9890578924    -1.3872295660     1.9028966987
Bq        -2.9883499013    -1.4741950001     1.7227953049
Bq        -2.9894118880    -1.3437468490     1.9929473955
Bq        -2.9879959057    -1.5176777171     1.6327446080
Bq        -2.9897658836    -1.3002641320     2.0829980924
Bq        -2.9876419101    -1.5611604341     1.5426939111
Bq        -2.9901198791    -1.2567814150     2.1730487893
Bq        -2.9872879145    -1.6046431511     1.4526432142
Bq        -2.9904738747    -1.2132986980     2.2630994862
Bq        -2.9869339190    -1.6481258681     1.3625925174
Bq        -2.9887038968    -1.4307122830     1.8128460018
Bq        -2.9888869601    -1.2971781734     1.8594143176
Bq        -2.9881789690    -1.3841436074     1.6793129239
Bq        -2.9892409557    -1.2536954564     1.9494650145
Bq        -2.9878249734    -1.4276263244     1.5892622270
Bq        -2.9895949513    -1.2102127394     2.0395157114
Bq        -2.9874709778    -1.4711090414     1.4992115301
Bq        -2.9899489469    -1.1667300224     2.1295664083
Bq        -2.9871169823    -1.5145917584     1.4091608332

1
2
3
4
5
6
7
8
9
10
11
12
13
14
15
16
17
18
19
20
21
22
23
24
25
26
27
28
29
30
31
32
33
34
35
36
37
38
39
40
41
42
43
44
45
46
47
48
49
50
51
52
53
54
55
56
57
58
59
60
61
62
63
64
65
66
67
68
69
70
71
72
73
74
75
76
77
78
79
80
81
82
83
84
85
86
87
88
89
90
91
92
93
94
95
96
97
98
99
100
101
102
103
104
105
106
107
108
109
110
111
112
113
114
115
116
117
118
119
120
121
122
123
124
125
126
127
128
129
130
131
132
133
134
135
136
137
138
139
140
141
142
143
144
145
146
147
148
149
150
151
152
153
154
155
156
157
158
159
160
161
162
163
164
165
166
167
168
169
170
171
172
173
174
175
176
177
178
179
180
181
182
183
184
185
186
187
188
189
190
191
192
193
194
195
196
197
198
199
200
201
202
203
204
205
206
207
208
209
210
211
212
213
214
215
216
217
218
219
220
221
222
223
224
225
226
227
228
229
230
231
232
233
234
235
236

