%nproc=8
%mem=1000MB
# rb3lyp/6-311+g** NMR geom=connectivity

Title

0 1
C    -4.0500558   -0.5771862    0.8136712
H    -5.0263804   -1.0082727    1.0024760
C    -3.9381552    0.6617804    0.2400876
H    -4.8252424    1.2338890   -0.0111295
C    -2.6768410    1.2433246    0.0057578
C    -1.4974121    0.5051527    0.2848253
C    -1.6508332   -0.7338728    0.9404026
H    -0.7713646   -1.2730967    1.2633753
C    -2.8898548   -1.2624035    1.1994307
H    -2.9683706   -2.2124563    1.7152676
C    -2.5773185    2.5963696   -0.4192930
H    -3.4870728    3.1412239   -0.6474055
C    -1.3741895    3.2147896   -0.4364030
H    -1.2997315    4.2742019   -0.6578144
C    -0.1719488    2.4994090   -0.1734588
C    -0.2043917    1.1018437    0.0192689
C     1.0513491    3.2042560   -0.0676222
H     1.0427344    4.2819499   -0.1896997
C     2.1942091    2.5487446    0.2579577
H     3.1168527    3.0912848    0.4334727
C     2.2216473    1.1336562    0.2934990
C     1.0486931    0.3945528    0.0302412
C     3.4483363    0.4614633    0.5573939
H     4.3095794    1.0606054    0.8334846
C     3.5427346   -0.8855926    0.4749463
H     4.4731467   -1.3939704    0.7038822
C     2.4490052   -1.6474447   -0.0196319
C     1.2150704   -1.0057258   -0.3013573
C     0.2531113   -1.7434440   -1.0216591
H    -0.6541356   -1.2535051   -1.3462847
C     0.4494193   -3.0628597   -1.3413779
H    -0.3083162   -3.5944309   -1.9054060
C     1.6251726   -3.7207967   -0.9552541
H     1.7670048   -4.7687404   -1.1927019
C     2.6109872   -3.0144177   -0.3183050
H     3.5525612   -3.4902813   -0.0646367
Bq         0.5059963634     2.7224836252     0.1414084584
Bq         0.4046646921     2.7568780208     0.8331807605
Bq         0.5204723164     2.7175701401     0.0425838438
Bq         0.3901887390     2.7617915059     0.9320053750
Bq         0.5349482695     2.7126566551    -0.0562407708
Bq         0.4625685042     2.7372240805     0.4378823021
Bq         0.4488046851     2.8420167809     0.5318453119
Bq         0.4777565912     2.8321898108     0.3341960828
Bq         0.4343287321     2.8469302660     0.6306699265
Bq         0.4922325443     2.8272763257     0.2353714682
Bq         0.4198527790     2.8518437511     0.7294945411
Bq         0.5067084973     2.8223628406     0.1365468536
Bq         0.4053768260     2.8567572362     0.8283191557
Bq         0.5211844503     2.8174493555     0.0377222390
Bq         0.3909008729     2.8616707213     0.9271437703
Bq         0.5356604034     2.8125358704    -0.0611023756
Bq         0.4632806382     2.8371032959     0.4330206974
Bq         0.4495168191     2.9418959963     0.5269837072
Bq         0.4784687252     2.9320690261     0.3293344780
Bq         0.4350408660     2.9468094814     0.6258083218
Bq         0.4929446782     2.9271555411     0.2305098634
Bq         0.4205649130     2.9517229665     0.7246329363
Bq         0.5074206312     2.9222420560     0.1316852488
Bq         0.4060889599     2.9566364516     0.8234575509
Bq         0.5218965843     2.9173285709     0.0328606343
Bq         0.3916130069     2.9615499366     0.9222821655
Bq         0.5363725373     2.9124150858    -0.0659639803
Bq         0.4639927721     2.9369825112     0.4281590926
Bq         0.4502289530     3.0417752117     0.5221221024
Bq         0.4791808591     3.0319482415     0.3244728732
Bq         0.4357530000     3.0466886968     0.6209467170
Bq         0.4936568121     3.0270347564     0.2256482587
Bq         0.4212770469     3.0516021819     0.7197713316
Bq         0.5081327652     3.0221212714     0.1268236441
Bq         0.4068010939     3.0565156669     0.8185959462
Bq         0.5226087182     3.0172077863     0.0279990295
Bq         0.3923251408     3.0614291520     0.9174205607
Bq         0.5370846713     3.0122943012    -0.0708255851
Bq         0.4647049061     3.0368617266     0.4232974878
Bq         0.4509410870     3.1416544271     0.5172604976
Bq         0.4798929930     3.1318274569     0.3196112685
Bq         0.4364651339     3.1465679121     0.6160851122
Bq         0.4943689461     3.1269139718     0.2207866539
Bq         0.4219891809     3.1514813972     0.7149097268
Bq         0.5088448991     3.1220004867     0.1219620393
Bq         0.4075132278     3.1563948823     0.8137343414
Bq         0.5233208522     3.1170870017     0.0231374247
Bq         0.3930372748     3.1613083674     0.9125589560
Bq         0.5377968052     3.1121735166    -0.0756871899
Bq         0.4654170400     3.1367409420     0.4184358831
Bq         0.4516532209     3.2415336424     0.5123988929
Bq         0.4806051270     3.2317066723     0.3147496637
Bq         0.4371772678     3.2464471275     0.6112235075
Bq         0.4950810800     3.2267931872     0.2159250491
Bq         0.4227013148     3.2513606126     0.7100481220
Bq         0.5095570331     3.2218797021     0.1171004345
Bq         0.4082253618     3.2562740977     0.8088727366
Bq         0.5240329861     3.2169662170     0.0182758200
Bq         0.3937494087     3.2611875828     0.9076973512
Bq         0.5385089392     3.2120527319    -0.0805487946
Bq         0.4661291739     3.2366201574     0.4135742783
Bq         0.4523653548     3.3414128578     0.5075372881
Bq         0.4813172609     3.3315858877     0.3098880589
Bq         0.4378894018     3.3463263429     0.6063619027
Bq         0.4957932140     3.3266724026     0.2110634444
Bq         0.4234134487     3.3512398280     0.7051865173
Bq         0.5102691670     3.3217589175     0.1122388298
Bq         0.4089374957     3.3561533131     0.8040111319
Bq         0.5247451201     3.3168454324     0.0134142152
Bq         0.3944615427     3.3610667981     0.9028357464
Bq         0.5392210731     3.3119319473    -0.0854103994
Bq         0.4668413079     3.3364993727     0.4087126735
Bq         0.4530774888     3.4412920732     0.5026756833
Bq         0.4820293949     3.4314651030     0.3050264542
Bq         0.4386015357     3.4462055583     0.6015002979
Bq         0.4965053479     3.4265516179     0.2062018396
Bq         0.4241255827     3.4511190434     0.7003249125
Bq         0.5109813010     3.4216381329     0.1073772250
Bq         0.4096496296     3.4560325284     0.7991495271
Bq         0.5254572540     3.4167246478     0.0085526104
Bq         0.3951736766     3.4609460135     0.8979741417
Bq         0.5399332070     3.4118111627    -0.0902720042
Bq         0.4675534418     3.4363785881     0.4038510688
Bq         0.4537896227     3.5411712886     0.4978140786
Bq         0.4827415288     3.5313443184     0.3001648494
Bq         0.4393136697     3.5460847737     0.5966386932
Bq         0.4972174819     3.5264308333     0.2013402348
Bq         0.4248377166     3.5509982587     0.6954633077
Bq         0.5116934349     3.5215173482     0.1025156202
Bq         0.4103617636     3.5559117438     0.7942879223
Bq         0.5261693879     3.5166038632     0.0036910057
Bq         0.3958858105     3.5608252289     0.8931125369
Bq         0.5406453410     3.5116903781    -0.0951336089
Bq         0.4682655758     3.5362578035     0.3989894640
Bq         0.4545017567     3.6410505039     0.4929524738
Bq         0.4834536627     3.6312235338     0.2953032446
Bq         0.4400258036     3.6459639890     0.5917770884
Bq         0.4979296158     3.6263100487     0.1964786301
Bq         0.4255498506     3.6508774741     0.6906017030
Bq         0.5124055688     3.6213965636     0.0976540155
Bq         0.4110738975     3.6557909592     0.7894263176
Bq         0.5268815219     3.6164830785    -0.0011705991
Bq         0.3965979445     3.6607044443     0.8882509321
Bq         0.5413574749     3.6115695935    -0.0999952137
Bq         0.4689777097     3.6361370189     0.3941278592
Bq         0.4552138906     3.7409297193     0.4880908690
Bq         0.4841657967     3.7311027492     0.2904416399
Bq         0.4407379376     3.7458432044     0.5869154836
Bq         0.4986417497     3.7261892641     0.1916170253
Bq         0.4262619845     3.7507566895     0.6857400982
Bq         0.5131177028     3.7212757790     0.0927924107
Bq         0.4117860315     3.7556701746     0.7845647128
Bq         0.5275936558     3.7163622939    -0.0060322039
Bq         0.3973100784     3.7605836597     0.8833893274
Bq         0.5420696089     3.7114488088    -0.1048568185
Bq         0.4696898436     3.7360162342     0.3892662545
Bq         0.4559260245     3.8408089347     0.4832292643
Bq         0.4848779306     3.8309819645     0.2855800351
Bq         0.4414500715     3.8457224198     0.5820538789
Bq         0.4993538837     3.8260684795     0.1867554205
Bq         0.4269741185     3.8506359049     0.6808784934
Bq         0.5138298367     3.8211549944     0.0879308059
Bq         0.4124981654     3.8555493900     0.7797031080
Bq         0.5283057898     3.8162415093    -0.0108938086
Bq         0.3980222124     3.8604628750     0.8785277226
Bq         0.5427817428     3.8113280242    -0.1097184232
Bq         0.4704019776     3.8358954496     0.3844046497
Bq         0.4566381585     3.9406881501     0.4783676595
Bq         0.4855900646     3.9308611799     0.2807184303
Bq         0.4421622054     3.9456016352     0.5771922741
Bq         0.5000660176     3.9259476948     0.1818938158
Bq         0.4276862524     3.9505151202     0.6760168887
Bq         0.5145419707     3.9210342098     0.0830692012
Bq         0.4132102994     3.9554286053     0.7748415033
Bq         0.5290179237     3.9161207247    -0.0157554134
Bq         0.3987343463     3.9603420904     0.8736661178
Bq         0.5434938768     3.9112072396    -0.1145800280
Bq         0.4711141115     3.9357746650     0.3795430449
Bq         0.4573502924     4.0405673655     0.4735060547
Bq         0.4863021985     4.0307403953     0.2758568256
Bq         0.4428743394     4.0454808505     0.5723306693
Bq         0.5007781516     4.0258269102     0.1770322110
Bq         0.4283983863     4.0503943356     0.6711552839
Bq         0.5152541046     4.0209134251     0.0782075964
Bq         0.4139224333     4.0553078207     0.7699798985
Bq         0.5297300576     4.0159999400    -0.0206170182
Bq         0.3994464802     4.0602213058     0.8688045131
Bq         0.5442060107     4.0110864550    -0.1194416328
Bq         0.4718262455     4.0356538804     0.3746814402
Bq         0.4580624264     4.1404465808     0.4686444500
Bq         0.4870143325     4.1306196107     0.2709952208
Bq         0.4435864733     4.1453600659     0.5674690646
Bq         0.5014902855     4.1257061256     0.1721706062
Bq         0.4291105203     4.1502735510     0.6662936791
Bq         0.5159662385     4.1207926405     0.0733459916
Bq         0.4146345672     4.1551870361     0.7651182937
Bq         0.5304421916     4.1158791554    -0.0254786229
Bq         0.4001586142     4.1601005212     0.8639429083
Bq         0.5449181446     4.1109656703    -0.1243032375
Bq         0.4725383794     4.1355330958     0.3698198354
Bq         0.4587745603     4.2403257962     0.4637828452
Bq         0.4877264664     4.2304988260     0.2661336160
Bq         0.4442986073     4.2452392813     0.5626074598
Bq         0.5022024194     4.2255853410     0.1673090015
Bq         0.4298226542     4.2501527664     0.6614320744
Bq         0.5166783725     4.2206718559     0.0684843869
Bq         0.4153467012     4.2550662515     0.7602566890
Bq         0.5311543255     4.2157583708    -0.0303402277
Bq         0.4008707481     4.2599797365     0.8590813035
Bq         0.5456302786     4.2108448857    -0.1291648423
Bq         0.4732505134     4.2354123111     0.3649582306
Bq         0.4594866943     4.3402050116     0.4589212404
Bq         0.4884386003     4.3303780414     0.2612720113
Bq         0.4450107412     4.3451184967     0.5577458550
Bq         0.5029145534     4.3254645563     0.1624473967
Bq         0.4305347882     4.3500319818     0.6565704696
Bq         0.5173905064     4.3205510713     0.0636227821
Bq         0.4160588351     4.3549454668     0.7553950842
Bq         0.5318664595     4.3156375862    -0.0352018325
Bq         0.4015828821     4.3598589519     0.8542196988
Bq         0.5463424125     4.3107241011    -0.1340264471
Bq         0.4739626473     4.3352915265     0.3600966259
Bq         0.5228241210    -0.6537557573     0.7164949377
Bq         0.5517760271    -0.6635827274     0.5188457085
Bq         0.5083481680    -0.6488422722     0.8153195523
Bq         0.5662519802    -0.6684962125     0.4200210939
Bq         0.4938722150    -0.6439287871     0.9141441668
Bq         0.5807279332    -0.6734096976     0.3211964793
Bq         0.4793962619    -0.6390153020     1.0129687814
Bq         0.5952038863    -0.6783231827     0.2223718648
Bq         0.4649203089    -0.6341018169     1.1117933960
Bq         0.6096798393    -0.6832366678     0.1235472502
Bq         0.5373000741    -0.6586692423     0.6176703231
Bq         0.5235362550    -0.5538765419     0.7116333329
Bq         0.5524881611    -0.5637035121     0.5139841037
Bq         0.5090603019    -0.5489630568     0.8104579475
Bq         0.5669641141    -0.5686169971     0.4151594892
Bq         0.4945843489    -0.5440495717     0.9092825621
Bq         0.5814400672    -0.5735304822     0.3163348746
Bq         0.4801083958    -0.5391360866     1.0081071767

1
2
3
4
5
6
7
8
9
10
11
12
13
14
15
16
17
18
19
20
21
22
23
24
25
26
27
28
29
30
31
32
33
34
35
36
37
38
39
40
41
42
43
44
45
46
47
48
49
50
51
52
53
54
55
56
57
58
59
60
61
62
63
64
65
66
67
68
69
70
71
72
73
74
75
76
77
78
79
80
81
82
83
84
85
86
87
88
89
90
91
92
93
94
95
96
97
98
99
100
101
102
103
104
105
106
107
108
109
110
111
112
113
114
115
116
117
118
119
120
121
122
123
124
125
126
127
128
129
130
131
132
133
134
135
136
137
138
139
140
141
142
143
144
145
146
147
148
149
150
151
152
153
154
155
156
157
158
159
160
161
162
163
164
165
166
167
168
169
170
171
172
173
174
175
176
177
178
179
180
181
182
183
184
185
186
187
188
189
190
191
192
193
194
195
196
197
198
199
200
201
202
203
204
205
206
207
208
209
210
211
212
213
214
215
216
217
218
219
220
221
222
223
224
225
226
227
228
229
230
231
232
233
234
235
236

