%nproc=8
%mem=1000MB
# rb3lyp/6-311+g** NMR geom=connectivity

Title

0 1
C    -4.0500558   -0.5771862    0.8136712
H    -5.0263804   -1.0082727    1.0024760
C    -3.9381552    0.6617804    0.2400876
H    -4.8252424    1.2338890   -0.0111295
C    -2.6768410    1.2433246    0.0057578
C    -1.4974121    0.5051527    0.2848253
C    -1.6508332   -0.7338728    0.9404026
H    -0.7713646   -1.2730967    1.2633753
C    -2.8898548   -1.2624035    1.1994307
H    -2.9683706   -2.2124563    1.7152676
C    -2.5773185    2.5963696   -0.4192930
H    -3.4870728    3.1412239   -0.6474055
C    -1.3741895    3.2147896   -0.4364030
H    -1.2997315    4.2742019   -0.6578144
C    -0.1719488    2.4994090   -0.1734588
C    -0.2043917    1.1018437    0.0192689
C     1.0513491    3.2042560   -0.0676222
H     1.0427344    4.2819499   -0.1896997
C     2.1942091    2.5487446    0.2579577
H     3.1168527    3.0912848    0.4334727
C     2.2216473    1.1336562    0.2934990
C     1.0486931    0.3945528    0.0302412
C     3.4483363    0.4614633    0.5573939
H     4.3095794    1.0606054    0.8334846
C     3.5427346   -0.8855926    0.4749463
H     4.4731467   -1.3939704    0.7038822
C     2.4490052   -1.6474447   -0.0196319
C     1.2150704   -1.0057258   -0.3013573
C     0.2531113   -1.7434440   -1.0216591
H    -0.6541356   -1.2535051   -1.3462847
C     0.4494193   -3.0628597   -1.3413779
H    -0.3083162   -3.5944309   -1.9054060
C     1.6251726   -3.7207967   -0.9552541
H     1.7670048   -4.7687404   -1.1927019
C     2.6109872   -3.0144177   -0.3183050
H     3.5525612   -3.4902813   -0.0646367
Bq         1.9337211991    -2.0831641889     0.8429782049
Bq         2.1905098423    -1.9408875986    -0.1129595361
Bq         2.0621155207    -2.0120258937     0.3650093344
Bq         2.0327456059    -1.9272708587     0.4743436480
Bq         2.0841033345    -1.8988155407     0.2831560999
Bq         2.0070667415    -1.9414985178     0.5699374221
Bq         2.1097821988    -1.8845878817     0.1875623258
Bq         1.9813878772    -1.9557261768     0.6655311962
Bq         2.1354610632    -1.8703602226     0.0919685517
Bq         1.9557090129    -1.9699538358     0.7611249703
Bq         2.1611399275    -1.8561325636    -0.0036252224
Bq         1.9300301486    -1.9841814949     0.8567187444
Bq         2.1868187918    -1.8419049046    -0.0992189965
Bq         2.0584244702    -1.9130431997     0.3787498740
Bq         2.0290545553    -1.8282881647     0.4880841876
Bq         2.0804122840    -1.7998328466     0.2968966394
Bq         2.0033756910    -1.8425158237     0.5836779617
Bq         2.1060911483    -1.7856051876     0.2013028653
Bq         1.9776968267    -1.8567434828     0.6792717358
Bq         2.1317700126    -1.7713775286     0.1057090912
Bq         1.9520179624    -1.8709711418     0.7748655099
Bq         2.1574488769    -1.7571498696     0.0101153171
Bq         1.9263390980    -1.8851988008     0.8704592840
Bq         2.1831277413    -1.7429222105    -0.0854784570
Bq         2.0547334197    -1.8140605057     0.3924904135
Bq         2.0253635048    -1.7293054707     0.5018247272
Bq         2.0767212334    -1.7008501526     0.3106371790
Bq         1.9996846405    -1.7435331297     0.5974185013
Bq         2.1024000978    -1.6866224936     0.2150434049
Bq         1.9740057762    -1.7577607887     0.6930122754
Bq         2.1280789621    -1.6723948346     0.1194496308
Bq         1.9483269118    -1.7719884478     0.7886060495
Bq         2.1537578264    -1.6581671755     0.0238558567
Bq         1.9226480475    -1.7862161068     0.8841998235
Bq         2.1794366907    -1.6439395165    -0.0717379174
Bq         2.0510423691    -1.7150778116     0.4062309531
Bq         2.0216724543    -1.6303227766     0.5155652667
Bq         2.0730301829    -1.6018674586     0.3243777185
Bq         1.9959935899    -1.6445504357     0.6111590408
Bq         2.0987090472    -1.5876397995     0.2287839444
Bq         1.9703147256    -1.6587780947     0.7067528149
Bq         2.1243879116    -1.5734121405     0.1331901703
Bq         1.9446358613    -1.6730057537     0.8023465890
Bq         2.1500667759    -1.5591844815     0.0375963963
Bq         1.9189569970    -1.6872334127     0.8979403631
Bq         2.1757456402    -1.5449568225    -0.0579973778
Bq         2.0473513186    -1.6160951176     0.4199714926
Bq         2.0179814037    -1.5313400826     0.5293058063
Bq         2.0693391324    -1.5028847645     0.3381182581
Bq         1.9923025394    -1.5455677416     0.6248995804
Bq         2.0950179967    -1.4886571055     0.2425244840
Bq         1.9666236751    -1.5597954007     0.7204933545
Bq         2.1206968610    -1.4744294465     0.1469307099
Bq         1.9409448108    -1.5740230597     0.8160871286
Bq         2.1463757253    -1.4602017875     0.0513369358
Bq         1.9152659464    -1.5882507187     0.9116809027
Bq         2.1720545897    -1.4459741284    -0.0442568383
Bq         2.0436602681    -1.5171124236     0.4337120322
Bq         2.0142903532    -1.4323573886     0.5430463458
Bq         2.0656480818    -1.4039020705     0.3518587977
Bq         1.9886114889    -1.4465850476     0.6386401199
Bq         2.0913269462    -1.3896744115     0.2562650236
Bq         1.9629326245    -1.4608127066     0.7342338940
Bq         2.1170058105    -1.3754467524     0.1606712495
Bq         1.9372537602    -1.4750403656     0.8298276681
Bq         2.1426846748    -1.3612190934     0.0650774754
Bq         1.9115748959    -1.4892680247     0.9254214422
Bq         2.1683635391    -1.3469914344    -0.0305162987
Bq         2.0399692175    -1.4181297295     0.4474525717
Bq         2.0105993027    -1.3333746945     0.5567868854
Bq         2.0619570313    -1.3049193765     0.3655993372
Bq         1.9849204383    -1.3476023536     0.6523806595
Bq         2.0876358956    -1.2906917174     0.2700055631
Bq         1.9592415740    -1.3618300126     0.7479744336
Bq         2.1133147599    -1.2764640584     0.1744117890
Bq         1.9335627097    -1.3760576716     0.8435682077
Bq         2.1389936243    -1.2622363994     0.0788180149
Bq         1.9078838454    -1.3902853306     0.9391619818
Bq         2.1646724886    -1.2480087404    -0.0167757592
Bq         2.0362781670    -1.3191470355     0.4611931113
Bq         2.0069082521    -1.2343920005     0.5705274250
Bq         2.0582659808    -1.2059366824     0.3793398768
Bq         1.9812293878    -1.2486196595     0.6661211991
Bq         2.0839448451    -1.1917090234     0.2837461027
Bq         1.9555505235    -1.2628473185     0.7617149732
Bq         2.1096237094    -1.1774813644     0.1881523286
Bq         1.9298716592    -1.2770749776     0.8573087472
Bq         2.1353025737    -1.1632537054     0.0925585545
Bq         1.9041927948    -1.2913026366     0.9529025213
Bq         2.1609814381    -1.1490260463    -0.0030352196
Bq         2.0325871164    -1.2201643415     0.4749336509
Bq         2.0032172016    -1.1354093065     0.5842679645
Bq         2.0545749302    -1.1069539884     0.3930804163
Bq         1.9775383373    -1.1496369655     0.6798617386
Bq         2.0802537946    -1.0927263294     0.2974866422
Bq         1.9518594729    -1.1638646245     0.7754555127
Bq         2.1059326589    -1.0784986703     0.2018928681
Bq         1.9261806086    -1.1780922835     0.8710492868
Bq         2.1316115232    -1.0642710113     0.1062990940
Bq         1.9005017443    -1.1923199426     0.9666430609
Bq         2.1572903875    -1.0500433523     0.0107053200
Bq         2.0288960659    -1.1211816474     0.4886741904
Bq         1.9995261511    -1.0364266124     0.5980085041
Bq         2.0508838797    -1.0079712944     0.4068209559
Bq         1.9738472867    -1.0506542714     0.6936022782
Bq         2.0765627440    -0.9937436353     0.3112271818
Bq         1.9481684224    -1.0648819305     0.7891960523
Bq         2.1022416083    -0.9795159763     0.2156334077
Bq         1.9224895581    -1.0791095895     0.8847898264
Bq         2.1279204727    -0.9652883173     0.1200396336
Bq         1.8968106938    -1.0933372485     0.9803836005
Bq         2.1535993370    -0.9510606583     0.0244458595
Bq         2.0252050154    -1.0221989534     0.5024147300
Bq         1.9958351005    -0.9374439184     0.6117490436
Bq         2.0471928292    -0.9089886003     0.4205614954
Bq         1.9701562362    -0.9516715774     0.7073428177
Bq         2.0728716935    -0.8947609413     0.3249677214
Bq         1.9444773719    -0.9658992364     0.8029365918
Bq         2.0985505578    -0.8805332823     0.2293739473
Bq         1.9187985075    -0.9801268955     0.8985303659
Bq         2.1242294221    -0.8663056232     0.1337801732
Bq         1.8931196432    -0.9943545545     0.9941241400
Bq         2.1499082865    -0.8520779642     0.0381863991
Bq         2.0215139648    -0.9232162594     0.5161552695
Bq         1.9921440500    -0.8384612243     0.6254895832
Bq         2.0435017786    -0.8100059063     0.4343020350
Bq         1.9664651857    -0.8526888834     0.7210833573
Bq         2.0691806429    -0.7957782473     0.3387082609
Bq         1.9407863213    -0.8669165424     0.8166771314
Bq         2.0948595073    -0.7815505882     0.2431144868
Bq         1.9151074570    -0.8811442014     0.9122709055
Bq         2.1205383716    -0.7673229292     0.1475207127
Bq         1.8894285927    -0.8953718605     1.0078646796
Bq         2.1462172359    -0.7530952702     0.0519269386
Bq         2.0178229143    -0.8242335653     0.5298958091
Bq         1.9884529994    -0.7394785303     0.6392301228
Bq         2.0398107281    -0.7110232123     0.4480425746
Bq         1.9627741351    -0.7537061893     0.7348238968
Bq         2.0654895924    -0.6967955532     0.3524488005
Bq         1.9370952708    -0.7679338484     0.8304176709
Bq         2.0911684567    -0.6825678942     0.2568550264
Bq         1.9114164065    -0.7821615074     0.9260114450
Bq         2.1168473211    -0.6683402352     0.1612612523
Bq         1.8857375422    -0.7963891664     1.0216052191
Bq         2.1425261854    -0.6541125761     0.0656674782
Bq         2.0141318638    -0.7252508713     0.5436363487
Bq         1.9847619489    -0.6404958363     0.6529706623
Bq         2.0361196776    -0.6120405182     0.4617831141
Bq         1.9590830846    -0.6547234953     0.7485644364
Bq         2.0617985419    -0.5978128592     0.3661893400
Bq         1.9334042203    -0.6689511543     0.8441582105
Bq         2.0874774062    -0.5835852002     0.2705955659
Bq         1.9077253559    -0.6831788134     0.9397519846
Bq         2.1131562705    -0.5693575411     0.1750017918
Bq         1.8820464916    -0.6974064724     1.0353457587
Bq         2.1388351348    -0.5551298821     0.0794080177
Bq         2.0104408132    -0.6262681772     0.5573768882
Bq         1.9810708984    -0.5415131422     0.6667112019
Bq         2.0324286270    -0.5130578242     0.4755236537
Bq         1.9553920341    -0.5557408013     0.7623049760
Bq         2.0581074913    -0.4988301652     0.3799298796
Bq         1.9297131697    -0.5699684603     0.8578987501
Bq         2.0837863557    -0.4846025061     0.2843361055
Bq         1.9040343054    -0.5841961193     0.9534925242
Bq         2.1094652200    -0.4703748471     0.1887423314
Bq         1.8783554411    -0.5984237784     1.0490862983
Bq         2.1351440843    -0.4561471881     0.0931485573
Bq         2.0067497627    -0.5272854832     0.5711174278
Bq         1.9773798478    -0.4425304482     0.6804517414
Bq         2.0287375765    -0.4140751301     0.4892641932
Bq         1.9517009835    -0.4567581072     0.7760455155
Bq         2.0544164408    -0.3998474711     0.3936704191
Bq         1.9260221192    -0.4709857663     0.8716392896
Bq         2.0800953051    -0.3856198121     0.2980766451
Bq         1.9003432549    -0.4852134253     0.9672330637
Bq         2.1057741695    -0.3713921531     0.2024828710
Bq         1.8746643906    -0.4994410843     1.0628268378
Bq         2.1314530338    -0.3571644940     0.1068890969
Bq         2.0030587122    -0.4283027892     0.5848579673
Bq         1.9736887973    -0.3435477542     0.6941922810
Bq         2.0250465260    -0.3150924361     0.5030047328
Bq         1.9480099330    -0.3577754132     0.7897860551
Bq         2.0507253903    -0.3008647771     0.4074109587
Bq         1.9223310687    -0.3720030722     0.8853798292
Bq         2.0764042546    -0.2866371181     0.3118171846
Bq         1.8966522043    -0.3862307313     0.9809736033
Bq         2.1020831189    -0.2724094590     0.2162234105
Bq         1.8709733400    -0.4004583903     1.0765673774
Bq         2.1277619832    -0.2581818000     0.1206296364
Bq         1.9993676616    -0.3293200951     0.5985985069
Bq         1.9699977468    -0.2445650601     0.7079328205
Bq         2.0213554754    -0.2161097421     0.5167452724
Bq         1.9443188824    -0.2587927192     0.8035265946
Bq         2.0470343397    -0.2018820830     0.4211514983
Bq         1.9186400181    -0.2730203782     0.8991203687
Bq         2.0727132041    -0.1876544240     0.3255577242
Bq         1.8929611538    -0.2872480372     0.9947141428
Bq         2.0983920684    -0.1734267650     0.2299639501
Bq         1.8672822895    -0.3014756962     1.0903079169
Bq         2.1240709327    -0.1591991060     0.1343701760

1
2
3
4
5
6
7
8
9
10
11
12
13
14
15
16
17
18
19
20
21
22
23
24
25
26
27
28
29
30
31
32
33
34
35
36
37
38
39
40
41
42
43
44
45
46
47
48
49
50
51
52
53
54
55
56
57
58
59
60
61
62
63
64
65
66
67
68
69
70
71
72
73
74
75
76
77
78
79
80
81
82
83
84
85
86
87
88
89
90
91
92
93
94
95
96
97
98
99
100
101
102
103
104
105
106
107
108
109
110
111
112
113
114
115
116
117
118
119
120
121
122
123
124
125
126
127
128
129
130
131
132
133
134
135
136
137
138
139
140
141
142
143
144
145
146
147
148
149
150
151
152
153
154
155
156
157
158
159
160
161
162
163
164
165
166
167
168
169
170
171
172
173
174
175
176
177
178
179
180
181
182
183
184
185
186
187
188
189
190
191
192
193
194
195
196
197
198
199
200
201
202
203
204
205
206
207
208
209
210
211
212
213
214
215
216
217
218
219
220
221
222
223
224
225
226
227
228
229
230
231
232
233
234
235
236

