%nproc=8
%mem=1000MB
# rb3lyp/6-311+g** NMR geom=connectivity

Title

0 1
C    -4.0500558   -0.5771862    0.8136712
H    -5.0263804   -1.0082727    1.0024760
C    -3.9381552    0.6617804    0.2400876
H    -4.8252424    1.2338890   -0.0111295
C    -2.6768410    1.2433246    0.0057578
C    -1.4974121    0.5051527    0.2848253
C    -1.6508332   -0.7338728    0.9404026
H    -0.7713646   -1.2730967    1.2633753
C    -2.8898548   -1.2624035    1.1994307
H    -2.9683706   -2.2124563    1.7152676
C    -2.5773185    2.5963696   -0.4192930
H    -3.4870728    3.1412239   -0.6474055
C    -1.3741895    3.2147896   -0.4364030
H    -1.2997315    4.2742019   -0.6578144
C    -0.1719488    2.4994090   -0.1734588
C    -0.2043917    1.1018437    0.0192689
C     1.0513491    3.2042560   -0.0676222
H     1.0427344    4.2819499   -0.1896997
C     2.1942091    2.5487446    0.2579577
H     3.1168527    3.0912848    0.4334727
C     2.2216473    1.1336562    0.2934990
C     1.0486931    0.3945528    0.0302412
C     3.4483363    0.4614633    0.5573939
H     4.3095794    1.0606054    0.8334846
C     3.5427346   -0.8855926    0.4749463
H     4.4731467   -1.3939704    0.7038822
C     2.4490052   -1.6474447   -0.0196319
C     1.2150704   -1.0057258   -0.3013573
C     0.2531113   -1.7434440   -1.0216591
H    -0.6541356   -1.2535051   -1.3462847
C     0.4494193   -3.0628597   -1.3413779
H    -0.3083162   -3.5944309   -1.9054060
C     1.6251726   -3.7207967   -0.9552541
H     1.7670048   -4.7687404   -1.1927019
C     2.6109872   -3.0144177   -0.3183050
H     3.5525612   -3.4902813   -0.0646367
Bq         0.3607758446     2.3377072190     0.4428352623
Bq         0.3470120255     2.4424999194     0.5367982721
Bq         0.3759639316     2.4326729493     0.3391490429
Bq         0.3325360724     2.4474134045     0.6356228867
Bq         0.3904398846     2.4277594642     0.2403244283
Bq         0.3180601194     2.4523268896     0.7344475013
Bq         0.4049158377     2.4228459791     0.1414998138
Bq         0.3035841664     2.4572403747     0.8332721158
Bq         0.4193917907     2.4179324940     0.0426751992
Bq         0.2891082133     2.4621538598     0.9320967304
Bq         0.4338677438     2.4130190089    -0.0561494154
Bq         0.3614879785     2.4375864343     0.4379736575
Bq         0.3477241594     2.5423791348     0.5319366673
Bq         0.3766760655     2.5325521646     0.3342874382
Bq         0.3332482064     2.5472926199     0.6307612819
Bq         0.3911520186     2.5276386796     0.2354628236
Bq         0.3187722533     2.5522061050     0.7295858965
Bq         0.4056279716     2.5227251945     0.1366382090
Bq         0.3042963003     2.5571195900     0.8284105111
Bq         0.4201039247     2.5178117094     0.0378135944
Bq         0.2898203473     2.5620330751     0.9272351257
Bq         0.4345798777     2.5128982243    -0.0610110202
Bq         0.3622001125     2.5374656497     0.4331120527
Bq         0.3484362934     2.6422583502     0.5270750626
Bq         0.3773881995     2.6324313800     0.3294258334
Bq         0.3339603403     2.6471718353     0.6258996771
Bq         0.3918641525     2.6275178949     0.2306012188
Bq         0.3194843873     2.6520853203     0.7247242917
Bq         0.4063401055     2.6226044098     0.1317766042
Bq         0.3050084342     2.6569988054     0.8235489063
Bq         0.4208160586     2.6176909248     0.0329519896
Bq         0.2905324812     2.6619122905     0.9223735209
Bq         0.4352920116     2.6127774397    -0.0658726249
Bq         0.3629122464     2.6373448651     0.4282504480
Bq         0.3491484273     2.7421375656     0.5222134578
Bq         0.3781003334     2.7323105954     0.3245642286
Bq         0.3346724743     2.7470510506     0.6210380724
Bq         0.3925762864     2.7273971103     0.2257396140
Bq         0.3201965212     2.7519645357     0.7198626870
Bq         0.4070522395     2.7224836252     0.1269149995
Bq         0.3057205682     2.7568780208     0.8186873015
Bq         0.4215281925     2.7175701401     0.0280903849
Bq         0.2912446151     2.7617915059     0.9175119161
Bq         0.4360041456     2.7126566551    -0.0707342297
Bq         0.3636243804     2.7372240805     0.4233888432
Bq         0.3498605613     2.8420167809     0.5173518530
Bq         0.3788124673     2.8321898108     0.3197026239
Bq         0.3353846082     2.8469302660     0.6161764676
Bq         0.3932884204     2.8272763257     0.2208780093
Bq         0.3209086552     2.8518437511     0.7150010822
Bq         0.4077643734     2.8223628406     0.1220533947
Bq         0.3064327021     2.8567572362     0.8138256968
Bq         0.4222403265     2.8174493555     0.0232287801
Bq         0.2919567491     2.8616707213     0.9126503114
Bq         0.4367162795     2.8125358704    -0.0755958345
Bq         0.3643365143     2.8371032959     0.4185272384
Bq         0.3505726952     2.9418959963     0.5124902483
Bq         0.3795246013     2.9320690261     0.3148410191
Bq         0.3360967422     2.9468094814     0.6113148628
Bq         0.3940005543     2.9271555411     0.2160164045
Bq         0.3216207891     2.9517229665     0.7101394774
Bq         0.4084765074     2.9222420560     0.1171917899
Bq         0.3071448361     2.9566364516     0.8089640920
Bq         0.4229524604     2.9173285709     0.0183671753
Bq         0.2926688830     2.9615499366     0.9077887066
Bq         0.4374284135     2.9124150858    -0.0804574392
Bq         0.3650486482     2.9369825112     0.4136656337
Bq         0.3512848291     3.0417752117     0.5076286435
Bq         0.3802367352     3.0319482415     0.3099794143
Bq         0.3368088761     3.0466886968     0.6064532581
Bq         0.3947126883     3.0270347564     0.2111547997
Bq         0.3223329231     3.0516021819     0.7052778727
Bq         0.4091886413     3.0221212714     0.1123301852
Bq         0.3078569700     3.0565156669     0.8041024872
Bq         0.4236645944     3.0172077863     0.0135055706
Bq         0.2933810170     3.0614291520     0.9029271018
Bq         0.4381405474     3.0122943012    -0.0853190440
Bq         0.3657607822     3.0368617266     0.4088040289
Bq         0.3519969631     3.1416544271     0.5027670387
Bq         0.3809488692     3.1318274569     0.3051178096
Bq         0.3375210100     3.1465679121     0.6015916533
Bq         0.3954248222     3.1269139718     0.2062931950
Bq         0.3230450570     3.1514813972     0.7004162679
Bq         0.4099007753     3.1220004867     0.1074685804
Bq         0.3085691039     3.1563948823     0.7992408825
Bq         0.4243767283     3.1170870017     0.0086439658
Bq         0.2940931509     3.1613083674     0.8980654971
Bq         0.4388526813     3.1121735166    -0.0901806488
Bq         0.3664729161     3.1367409420     0.4039424241
Bq         0.3527090970     3.2415336424     0.4979054340
Bq         0.3816610031     3.2317066723     0.3002562048
Bq         0.3382331440     3.2464471275     0.5967300485
Bq         0.3961369562     3.2267931872     0.2014315902
Bq         0.3237571909     3.2513606126     0.6955546631
Bq         0.4106129092     3.2218797021     0.1026069756
Bq         0.3092812379     3.2562740977     0.7943792777
Bq         0.4250888622     3.2169662170     0.0037823610
Bq         0.2948052848     3.2611875828     0.8932038923
Bq         0.4395648153     3.2120527319    -0.0950422535
Bq         0.3671850501     3.2366201574     0.3990808194
Bq         0.3534212310     3.3414128578     0.4930438292
Bq         0.3823731371     3.3315858877     0.2953946000
Bq         0.3389452779     3.3463263429     0.5918684438
Bq         0.3968490901     3.3266724026     0.1965699854
Bq         0.3244693249     3.3512398280     0.6906930584
Bq         0.4113250431     3.3217589175     0.0977453709
Bq         0.3099933718     3.3561533131     0.7895176729
Bq         0.4258009962     3.3168454324    -0.0010792437
Bq         0.2955174188     3.3610667981     0.8883422875
Bq         0.4402769492     3.3119319473    -0.0999038583
Bq         0.3678971840     3.3364993727     0.3942192146
Bq         0.3541333649     3.4412920732     0.4881822244
Bq         0.3830852710     3.4314651030     0.2905329953
Bq         0.3396574119     3.4462055583     0.5870068390
Bq         0.3975612240     3.4265516179     0.1917083807
Bq         0.3251814588     3.4511190434     0.6858314536
Bq         0.4120371771     3.4216381329     0.0928837661
Bq         0.3107055058     3.4560325284     0.7846560682
Bq         0.4265131301     3.4167246478    -0.0059408485
Bq         0.2962295527     3.4609460135     0.8834806828
Bq         0.4409890832     3.4118111627    -0.1047654631
Bq         0.3686093179     3.4363785881     0.3893576098
Bq         0.3548454988     3.5411712886     0.4833206197
Bq         0.3837974049     3.5313443184     0.2856713905
Bq         0.3403695458     3.5460847737     0.5821452342
Bq         0.3982733580     3.5264308333     0.1868467759
Bq         0.3258935928     3.5509982587     0.6809698488
Bq         0.4127493110     3.5215173482     0.0880221613
Bq         0.3114176397     3.5559117438     0.7797944634
Bq         0.4272252641     3.5166038632    -0.0108024533
Bq         0.2969416867     3.5608252289     0.8786190780
Bq         0.4417012171     3.5116903781    -0.1096270678
Bq         0.3693214519     3.5362578035     0.3844960051
Bq         0.3555576328     3.6410505039     0.4784590149
Bq         0.3845095389     3.6312235338     0.2808097857
Bq         0.3410816797     3.6459639890     0.5772836295
Bq         0.3989854919     3.6263100487     0.1819851711
Bq         0.3266057267     3.6508774741     0.6761082441
Bq         0.4134614450     3.6213965636     0.0831605566
Bq         0.3121297737     3.6557909592     0.7749328586
Bq         0.4279373980     3.6164830785    -0.0156640580
Bq         0.2976538206     3.6607044443     0.8737574732
Bq         0.4424133511     3.6115695935    -0.1144886726
Bq         0.3700335858     3.6361370189     0.3796344003
Bq         0.3562697667     3.7409297193     0.4735974101
Bq         0.3852216728     3.7311027492     0.2759481810
Bq         0.3417938137     3.7458432044     0.5724220247
Bq         0.3996976259     3.7261892641     0.1771235664
Bq         0.3273178606     3.7507566895     0.6712466393
Bq         0.4141735789     3.7212757790     0.0782989518
Bq         0.3128419076     3.7556701746     0.7700712539
Bq         0.4286495320     3.7163622939    -0.0205256628
Bq         0.2983659546     3.7605836597     0.8688958685
Bq         0.4431254850     3.7114488088    -0.1193502774
Bq         0.3707457198     3.7360162342     0.3747727955
Bq         0.3569819007     3.8408089347     0.4687358054
Bq         0.3859338068     3.8309819645     0.2710865762
Bq         0.3425059476     3.8457224198     0.5675604199
Bq         0.4004097598     3.8260684795     0.1722619616
Bq         0.3280299946     3.8506359049     0.6663850345
Bq         0.4148857128     3.8211549944     0.0734373470
Bq         0.3135540415     3.8555493900     0.7652096491
Bq         0.4293616659     3.8162415093    -0.0253872676
Bq         0.2990780885     3.8604628750     0.8640342637
Bq         0.4438376189     3.8113280242    -0.1242118821
Bq         0.3714578537     3.8358954496     0.3699111908
Bq         0.3576940346     3.9406881501     0.4638742006
Bq         0.3866459407     3.9308611799     0.2662249714
Bq         0.3432180816     3.9456016352     0.5626988152
Bq         0.4011218937     3.9259476948     0.1674003568
Bq         0.3287421285     3.9505151202     0.6615234298
Bq         0.4155978468     3.9210342098     0.0685757423
Bq         0.3142661755     3.9554286053     0.7603480443
Bq         0.4300737998     3.9161207247    -0.0302488723
Bq         0.2997902224     3.9603420904     0.8591726589
Bq         0.4445497529     3.9112072396    -0.1290734869
Bq         0.3721699877     3.9357746650     0.3650495860
Bq         0.3584061686     4.0405673655     0.4590125958
Bq         0.3873580746     4.0307403953     0.2613633667
Bq         0.3439302155     4.0454808505     0.5578372104
Bq         0.4018340277     4.0258269102     0.1625387521
Bq         0.3294542625     4.0503943356     0.6566618250
Bq         0.4163099807     4.0209134251     0.0637141375
Bq         0.3149783094     4.0553078207     0.7554864396
Bq         0.4307859338     4.0159999400    -0.0351104771
Bq         0.3005023564     4.0602213058     0.8543110542
Bq         0.4452618868     4.0110864550    -0.1339350917
Bq         0.3728821216     4.0356538804     0.3601879812
Bq         0.3591183025     4.1404465808     0.4541509911
Bq         0.3880702086     4.1306196107     0.2565017619
Bq         0.3446423495     4.1453600659     0.5529756056
Bq         0.4025461616     4.1257061256     0.1576771473
Bq         0.3301663964     4.1502735510     0.6518002202
Bq         0.4170221147     4.1207926405     0.0588525327
Bq         0.3156904434     4.1551870361     0.7506248348
Bq         0.4314980677     4.1158791554    -0.0399720819
Bq         0.3012144903     4.1601005212     0.8494494494
Bq         0.4459740208     4.1109656703    -0.1387966964
Bq         0.3735942555     4.1355330958     0.3553263765
Bq         0.3598304364     4.2403257962     0.4492893863

1
2
3
4
5
6
7
8
9
10
11
12
13
14
15
16
17
18
19
20
21
22
23
24
25
26
27
28
29
30
31
32
33
34
35
36
37
38
39
40
41
42
43
44
45
46
47
48
49
50
51
52
53
54
55
56
57
58
59
60
61
62
63
64
65
66
67
68
69
70
71
72
73
74
75
76
77
78
79
80
81
82
83
84
85
86
87
88
89
90
91
92
93
94
95
96
97
98
99
100
101
102
103
104
105
106
107
108
109
110
111
112
113
114
115
116
117
118
119
120
121
122
123
124
125
126
127
128
129
130
131
132
133
134
135
136
137
138
139
140
141
142
143
144
145
146
147
148
149
150
151
152
153
154
155
156
157
158
159
160
161
162
163
164
165
166
167
168
169
170
171
172
173
174
175
176
177
178
179
180
181
182
183
184
185
186
187
188
189
190
191
192
193
194
195
196
197
198
199
200
201
202
203
204
205
206
207
208
209
210
211
212
213
214
215
216
217
218
219
220
221
222
223
224
225
226
227
228
229
230
231
232
233
234
235
236

