%nproc=8
%mem=1000MB
# rb3lyp/6-311+g** NMR geom=connectivity

Title

0 1
C    -4.0500558   -0.5771862    0.8136712
H    -5.0263804   -1.0082727    1.0024760
C    -3.9381552    0.6617804    0.2400876
H    -4.8252424    1.2338890   -0.0111295
C    -2.6768410    1.2433246    0.0057578
C    -1.4974121    0.5051527    0.2848253
C    -1.6508332   -0.7338728    0.9404026
H    -0.7713646   -1.2730967    1.2633753
C    -2.8898548   -1.2624035    1.1994307
H    -2.9683706   -2.2124563    1.7152676
C    -2.5773185    2.5963696   -0.4192930
H    -3.4870728    3.1412239   -0.6474055
C    -1.3741895    3.2147896   -0.4364030
H    -1.2997315    4.2742019   -0.6578144
C    -0.1719488    2.4994090   -0.1734588
C    -0.2043917    1.1018437    0.0192689
C     1.0513491    3.2042560   -0.0676222
H     1.0427344    4.2819499   -0.1896997
C     2.1942091    2.5487446    0.2579577
H     3.1168527    3.0912848    0.4334727
C     2.2216473    1.1336562    0.2934990
C     1.0486931    0.3945528    0.0302412
C     3.4483363    0.4614633    0.5573939
H     4.3095794    1.0606054    0.8334846
C     3.5427346   -0.8855926    0.4749463
H     4.4731467   -1.3939704    0.7038822
C     2.4490052   -1.6474447   -0.0196319
C     1.2150704   -1.0057258   -0.3013573
C     0.2531113   -1.7434440   -1.0216591
H    -0.6541356   -1.2535051   -1.3462847
C     0.4494193   -3.0628597   -1.3413779
H    -0.3083162   -3.5944309   -1.9054060
C     1.6251726   -3.7207967   -0.9552541
H     1.7670048   -4.7687404   -1.1927019
C     2.6109872   -3.0144177   -0.3183050
H     3.5525612   -3.4902813   -0.0646367
Bq         0.6257882654    -1.0630345699     0.3939568169
Bq         0.9446823757    -0.8501093610    -0.3081609808
Bq         0.5859265016    -1.0896502210     0.4817215416
Bq         0.9845441394    -0.8234937099    -0.3959257056
Bq         0.7852353205    -0.9565719655     0.0428979180
Bq         0.7343670833    -0.8867946339     0.1548958932
Bq         0.8140906109    -0.8335633317    -0.0206335562
Bq         0.6945053196    -0.9134102850     0.2426606179
Bq         0.8539523747    -0.8069476805    -0.1083982810
Bq         0.6546435558    -0.9400259361     0.3304253426
Bq         0.8938141385    -0.7803320294    -0.1961630057
Bq         0.6147817920    -0.9666415872     0.4181900673
Bq         0.9336759023    -0.7537163783    -0.2839277304
Bq         0.5749200282    -0.9932572383     0.5059547920
Bq         0.9735376661    -0.7271007272    -0.3716924551
Bq         0.7742288471    -0.8601789828     0.0671311685
Bq         0.7233606100    -0.7904016512     0.1791291436
Bq         0.8030841375    -0.7371703489     0.0035996942
Bq         0.6834988462    -0.8170173023     0.2668938683
Bq         0.8429459013    -0.7105546978    -0.0841650305
Bq         0.6436370824    -0.8436329534     0.3546585931
Bq         0.8828076651    -0.6839390467    -0.1719297552
Bq         0.6037753186    -0.8702486045     0.4424233178
Bq         0.9226694289    -0.6573233956    -0.2596944799
Bq         0.5639135548    -0.8968642556     0.5301880425
Bq         0.9625311927    -0.6307077445    -0.3474592046
Bq         0.7632223738    -0.7637860000     0.0913644189
Bq         0.7123541366    -0.6940086684     0.2033623941
Bq         0.7920776642    -0.6407773662     0.0278329447
Bq         0.6724923728    -0.7206243196     0.2911271188
Bq         0.8319394280    -0.6141617151    -0.0599317800
Bq         0.6326306090    -0.7472399707     0.3788918435
Bq         0.8718011917    -0.5875460640    -0.1476965048
Bq         0.5927688452    -0.7738556218     0.4666565682
Bq         0.9116629555    -0.5609304129    -0.2354612295
Bq         0.5529070814    -0.8004712729     0.5544212929
Bq         0.9515247193    -0.5343147618    -0.3232259542
Bq         0.7522159004    -0.6673930173     0.1155976694
Bq         0.7013476632    -0.5976156857     0.2275956446
Bq         0.7810711908    -0.5443843835     0.0520661951
Bq         0.6614858994    -0.6242313368     0.3153603693
Bq         0.8209329546    -0.5177687324    -0.0356985296
Bq         0.6216241357    -0.6508469879     0.4031250940
Bq         0.8607947184    -0.4911530813    -0.1234632543
Bq         0.5817623719    -0.6774626391     0.4908898187
Bq         0.9006564822    -0.4645374302    -0.2112279790
Bq         0.5419006081    -0.7040782902     0.5786545434
Bq         0.9405182460    -0.4379217791    -0.2989927037
Bq         0.7412094270    -0.5710000346     0.1398309198
Bq         0.6903411899    -0.5012227030     0.2518288950
Bq         0.7700647174    -0.4479914008     0.0762994456
Bq         0.6504794261    -0.5278383541     0.3395936197
Bq         0.8099264812    -0.4213757497    -0.0114652791
Bq         0.6106176623    -0.5544540052     0.4273583444
Bq         0.8497882450    -0.3947600986    -0.0992300038
Bq         0.5707558985    -0.5810696563     0.5151230691
Bq         0.8896500088    -0.3681444475    -0.1869947286
Bq         0.5308941347    -0.6076853074     0.6028877939
Bq         0.9295117726    -0.3415287964    -0.2747594533
Bq         0.7302029536    -0.4746070519     0.1640641703
Bq         0.6793347165    -0.4048297203     0.2760621455
Bq         0.7590582441    -0.3515984181     0.1005326960
Bq         0.6394729527    -0.4314453714     0.3638268702
Bq         0.7989200078    -0.3249827670     0.0127679713
Bq         0.5996111889    -0.4580610225     0.4515915949
Bq         0.8387817716    -0.2983671159    -0.0749967534
Bq         0.5597494251    -0.4846766736     0.5393563196
Bq         0.8786435354    -0.2717514648    -0.1627614781
Bq         0.5198876613    -0.5112923247     0.6271210443
Bq         0.9185052992    -0.2451358137    -0.2505262028
Bq         0.7191964803    -0.3782140692     0.1882974208
Bq         0.6683282431    -0.3084367376     0.3002953959
Bq         0.7480517707    -0.2552054354     0.1247659465
Bq         0.6284664793    -0.3350523887     0.3880601206
Bq         0.7879135345    -0.2285897843     0.0370012218
Bq         0.5886047155    -0.3616680398     0.4758248454
Bq         0.8277752983    -0.2019741332    -0.0507635029
Bq         0.5487429517    -0.3882836909     0.5635895701
Bq         0.8676370620    -0.1753584821    -0.1385282276
Bq         0.5088811880    -0.4148993420     0.6513542948
Bq         0.9074988258    -0.1487428310    -0.2262929524
Bq         0.7081900069    -0.2818210865     0.2125306712
Bq         0.6573217697    -0.2120437549     0.3245286464
Bq         0.7370452973    -0.1588124527     0.1489991970
Bq         0.6174600059    -0.2386594060     0.4122933711
Bq         0.7769070611    -0.1321968016     0.0612344722
Bq         0.5775982422    -0.2652750571     0.5000580958
Bq         0.8167688249    -0.1055811505    -0.0265302525
Bq         0.5377364784    -0.2918907082     0.5878228205
Bq         0.8566305887    -0.0789654993    -0.1142949772
Bq         0.4978747146    -0.3185063593     0.6755875452
Bq         0.8964923525    -0.0523498482    -0.2020597019
Bq         0.6971835335    -0.1854281038     0.2367639217
Bq         0.6463152964    -0.1156507722     0.3487618968
Bq         0.7260388239    -0.0624194700     0.1732324474
Bq         0.6064535326    -0.1422664233     0.4365266216
Bq         0.7659005877    -0.0358038189     0.0854677227
Bq         0.5665917688    -0.1688820744     0.5242913463
Bq         0.8057623515    -0.0091881677    -0.0022970020
Bq         0.5267300050    -0.1954977255     0.6120560710
Bq         0.8456241153     0.0174274834    -0.0900617267
Bq         0.4868682412    -0.2221133766     0.6998207957
Bq         0.8854858791     0.0440431345    -0.1778264514
Bq         0.6861770602    -0.0890351211     0.2609971721
Bq         1.2876878383    -4.9352999078    -0.8215472384
Bq         1.3674113659    -4.8820686056    -0.9970766879
Bq         1.2478260745    -4.9619155589    -0.7337825137
Bq         1.4072731296    -4.8554529545    -1.0848414126
Bq         1.2079643107    -4.9885312100    -0.6460177890
Bq         1.4471348934    -4.8288373034    -1.1726061373
Bq         1.1681025469    -5.0151468611    -0.5582530643
Bq         1.4869966572    -4.8022216522    -1.2603708620
Bq         1.1282407831    -5.0417625122    -0.4704883396
Bq         1.5268584210    -4.7756060011    -1.3481355867
Bq         1.3275496021    -4.9086842567    -0.9093119631
Bq         1.2766813649    -4.8389069251    -0.7973139880
Bq         1.3564048925    -4.7856756229    -0.9728434374
Bq         1.2368196011    -4.8655225762    -0.7095492633
Bq         1.3962666563    -4.7590599717    -1.0606081621
Bq         1.1969578373    -4.8921382273    -0.6217845385
Bq         1.4361284201    -4.7324443206    -1.1483728868
Bq         1.1570960735    -4.9187538784    -0.5340198138
Bq         1.4759901838    -4.7058286695    -1.2361376115
Bq         1.1172343098    -4.9453695295    -0.4462550891
Bq         1.5158519476    -4.6792130184    -1.3239023362
Bq         1.3165431287    -4.8122912740    -0.8850787127
Bq         1.2656748915    -4.7425139424    -0.7730807375
Bq         1.3453984191    -4.6892826401    -0.9486101869
Bq         1.2258131278    -4.7691295935    -0.6853160128
Bq         1.3852601829    -4.6626669890    -1.0363749117
Bq         1.1859513640    -4.7957452446    -0.5975512881
Bq         1.4251219467    -4.6360513379    -1.1241396364
Bq         1.1460896002    -4.8223608957    -0.5097865634
Bq         1.4649837105    -4.6094356868    -1.2119043611
Bq         1.1062278364    -4.8489765468    -0.4220218387
Bq         1.5048454743    -4.5828200357    -1.2996690858
Bq         1.3055366553    -4.7158982912    -0.8608454622
Bq         1.2546684182    -4.6461209596    -0.7488474871
Bq         1.3343919457    -4.5928896574    -0.9243769365
Bq         1.2148066544    -4.6727366108    -0.6610827623
Bq         1.3742537095    -4.5662740063    -1.0121416612
Bq         1.1749448906    -4.6993522619    -0.5733180376
Bq         1.4141154733    -4.5396583552    -1.0999063859
Bq         1.1350831268    -4.7259679130    -0.4855533129
Bq         1.4539772371    -4.5130427041    -1.1876711106
Bq         1.0952213630    -4.7525835641    -0.3977885882
Bq         1.4938390009    -4.4864270530    -1.2754358353
Bq         1.2945301820    -4.6195053085    -0.8366122118
Bq         1.2436619448    -4.5497279769    -0.7246142366
Bq         1.3233854724    -4.4964966747    -0.9001436860
Bq         1.2038001810    -4.5763436280    -0.6368495119
Bq         1.3632472362    -4.4698810236    -0.9879084107
Bq         1.1639384172    -4.6029592791    -0.5490847872
Bq         1.4031089999    -4.4432653725    -1.0756731354
Bq         1.1240766534    -4.6295749303    -0.4613200625
Bq         1.4429707637    -4.4166497214    -1.1634378602
Bq         1.0842148896    -4.6561905814    -0.3735553377
Bq         1.4828325275    -4.3900340703    -1.2512025849
Bq         1.2835237086    -4.5231123258    -0.8123789613
Bq         1.2326554714    -4.4533349942    -0.7003809861
Bq         1.3123789990    -4.4001036920    -0.8759104356
Bq         1.1927937076    -4.4799506453    -0.6126162614
Bq         1.3522407628    -4.3734880409    -0.9636751603
Bq         1.1529319438    -4.5065662964    -0.5248515367
Bq         1.3921025266    -4.3468723898    -1.0514398850
Bq         1.1130701801    -4.5331819475    -0.4370868120
Bq         1.4319642904    -4.3202567387    -1.1392046097
Bq         1.0732084163    -4.5597975986    -0.3493220873
Bq         1.4718260541    -4.2936410876    -1.2269693344
Bq         1.2725172352    -4.4267193431    -0.7881457109
Bq         1.2216489981    -4.3569420115    -0.6761477357
Bq         1.3013725256    -4.3037107093    -0.8516771851
Bq         1.1817872343    -4.3835576626    -0.5883830110
Bq         1.3412342894    -4.2770950582    -0.9394419098
Bq         1.1419254705    -4.4101733137    -0.5006182863
Bq         1.3810960532    -4.2504794071    -1.0272066345
Bq         1.1020637067    -4.4367889648    -0.4128535615
Bq         1.4209578170    -4.2238637560    -1.1149713592
Bq         1.0622019429    -4.4634046159    -0.3250888368
Bq         1.4608195808    -4.1972481049    -1.2027360840
Bq         1.2615107618    -4.3303263604    -0.7639124604
Bq         1.2106425247    -4.2605490288    -0.6519144852
Bq         1.2903660523    -4.2073177266    -0.8274439346
Bq         1.1707807609    -4.2871646799    -0.5641497605
Bq         1.3302278160    -4.1807020755    -0.9152086594
Bq         1.1309189971    -4.3137803310    -0.4763850358
Bq         1.3700895798    -4.1540864244    -1.0029733841
Bq         1.0910572333    -4.3403959821    -0.3886203111
Bq         1.4099513436    -4.1274707733    -1.0907381088
Bq         1.0511954695    -4.3670116332    -0.3008555864
Bq         1.4498131074    -4.1008551222    -1.1785028335
Bq         1.2505042885    -4.2339333777    -0.7396792099
Bq         1.1996360513    -4.1641560461    -0.6276812348
Bq         1.2793595789    -4.1109247439    -0.8032106842
Bq         1.1597742875    -4.1907716972    -0.5399165101
Bq         1.3192213427    -4.0843090928    -0.8909754089
Bq         1.1199125237    -4.2173873483    -0.4521517853
Bq         1.3590831065    -4.0576934417    -0.9787401336
Bq         1.0800507599    -4.2440029994    -0.3643870606
Bq         1.3989448702    -4.0310777905    -1.0665048583

1
2
3
4
5
6
7
8
9
10
11
12
13
14
15
16
17
18
19
20
21
22
23
24
25
26
27
28
29
30
31
32
33
34
35
36
37
38
39
40
41
42
43
44
45
46
47
48
49
50
51
52
53
54
55
56
57
58
59
60
61
62
63
64
65
66
67
68
69
70
71
72
73
74
75
76
77
78
79
80
81
82
83
84
85
86
87
88
89
90
91
92
93
94
95
96
97
98
99
100
101
102
103
104
105
106
107
108
109
110
111
112
113
114
115
116
117
118
119
120
121
122
123
124
125
126
127
128
129
130
131
132
133
134
135
136
137
138
139
140
141
142
143
144
145
146
147
148
149
150
151
152
153
154
155
156
157
158
159
160
161
162
163
164
165
166
167
168
169
170
171
172
173
174
175
176
177
178
179
180
181
182
183
184
185
186
187
188
189
190
191
192
193
194
195
196
197
198
199
200
201
202
203
204
205
206
207
208
209
210
211
212
213
214
215
216
217
218
219
220
221
222
223
224
225
226
227
228
229
230
231
232
233
234
235
236

