%nproc=8
%mem=1000MB
# rb3lyp/6-311+g** NMR geom=connectivity

Title

0 1
C    -4.0500558   -0.5771862    0.8136712
H    -5.0263804   -1.0082727    1.0024760
C    -3.9381552    0.6617804    0.2400876
H    -4.8252424    1.2338890   -0.0111295
C    -2.6768410    1.2433246    0.0057578
C    -1.4974121    0.5051527    0.2848253
C    -1.6508332   -0.7338728    0.9404026
H    -0.7713646   -1.2730967    1.2633753
C    -2.8898548   -1.2624035    1.1994307
H    -2.9683706   -2.2124563    1.7152676
C    -2.5773185    2.5963696   -0.4192930
H    -3.4870728    3.1412239   -0.6474055
C    -1.3741895    3.2147896   -0.4364030
H    -1.2997315    4.2742019   -0.6578144
C    -0.1719488    2.4994090   -0.1734588
C    -0.2043917    1.1018437    0.0192689
C     1.0513491    3.2042560   -0.0676222
H     1.0427344    4.2819499   -0.1896997
C     2.1942091    2.5487446    0.2579577
H     3.1168527    3.0912848    0.4334727
C     2.2216473    1.1336562    0.2934990
C     1.0486931    0.3945528    0.0302412
C     3.4483363    0.4614633    0.5573939
H     4.3095794    1.0606054    0.8334846
C     3.5427346   -0.8855926    0.4749463
H     4.4731467   -1.3939704    0.7038822
C     2.4490052   -1.6474447   -0.0196319
C     1.2150704   -1.0057258   -0.3013573
C     0.2531113   -1.7434440   -1.0216591
H    -0.6541356   -1.2535051   -1.3462847
C     0.4494193   -3.0628597   -1.3413779
H    -0.3083162   -3.5944309   -1.9054060
C     1.6251726   -3.7207967   -0.9552541
H     1.7670048   -4.7687404   -1.1927019
C     2.6109872   -3.0144177   -0.3183050
H     3.5525612   -3.4902813   -0.0646367
Bq         2.3263238960    -2.7333600701     0.5378414510
Bq         2.4290393533    -2.6764494339     0.1554663547
Bq         2.3006450316    -2.7475877291     0.6334352251
Bq         2.4547182176    -2.6622217749     0.0598725806
Bq         2.2749661673    -2.7618153881     0.7290289992
Bq         2.4803970819    -2.6479941159    -0.0357211935
Bq         2.2492873030    -2.7760430471     0.8246227733
Bq         2.5060759462    -2.6337664569    -0.1313149676
Bq         2.3776816246    -2.7049047520     0.3466539028
Bq         2.3483117098    -2.6201497170     0.4559882165
Bq         2.3996694384    -2.5916943989     0.2648006683
Bq         2.3226328454    -2.6343773760     0.5515819906
Bq         2.4253483027    -2.5774667399     0.1692068942
Bq         2.2969539811    -2.6486050350     0.6471757647
Bq         2.4510271670    -2.5632390809     0.0736131201
Bq         2.2712751168    -2.6628326941     0.7427695388
Bq         2.4767060314    -2.5490114219    -0.0219806540
Bq         2.2455962525    -2.6770603531     0.8383633129
Bq         2.5023848957    -2.5347837628    -0.1175744281
Bq         2.3739905741    -2.6059220580     0.3603944424
Bq         2.3446206592    -2.5211670230     0.4697287561
Bq         2.3959783879    -2.4927117049     0.2785412079
Bq         2.3189417949    -2.5353946820     0.5653225302
Bq         2.4216572522    -2.4784840459     0.1829474338
Bq         2.2932629306    -2.5496223410     0.6609163043
Bq         2.4473361165    -2.4642563868     0.0873536597
Bq         2.2675840663    -2.5638500000     0.7565100783
Bq         2.4730149808    -2.4500287278    -0.0082401144
Bq         2.2419052019    -2.5780776591     0.8521038524
Bq         2.4986938452    -2.4358010688    -0.1038338885
Bq         2.3702995235    -2.5069393639     0.3741349820
Bq         2.3409296087    -2.4221843289     0.4834692956
Bq         2.3922873373    -2.3937290109     0.2922817474
Bq         2.3152507444    -2.4364119879     0.5790630697
Bq         2.4179662017    -2.3795013518     0.1966879733
Bq         2.2895718800    -2.4506396470     0.6746568438
Bq         2.4436450660    -2.3652736928     0.1010941992
Bq         2.2638930157    -2.4648673060     0.7702506179
Bq         2.4693239303    -2.3510460338     0.0055004251
Bq         2.2382141514    -2.4790949650     0.8658443920
Bq         2.4950027946    -2.3368183748    -0.0900933489
Bq         2.3666084730    -2.4079566699     0.3878755215
Bq         2.3372385582    -2.3232016349     0.4972098352
Bq         2.3885962868    -2.2947463168     0.3060222870
Bq         2.3115596938    -2.3374292939     0.5928036093
Bq         2.4142751511    -2.2805186578     0.2104285129
Bq         2.2858808295    -2.3516569529     0.6883973834
Bq         2.4399540154    -2.2662909988     0.1148347388
Bq         2.2602019652    -2.3658846120     0.7839911575
Bq         2.4656328798    -2.2520633397     0.0192409647
Bq         2.2345231009    -2.3801122710     0.8795849316
Bq         2.4913117441    -2.2378356807    -0.0763528094
Bq         2.3629174225    -2.3089739759     0.4016160611
Bq         2.3335475076    -2.2242189408     0.5109503747
Bq         2.3849052363    -2.1957636228     0.3197628265
Bq         2.3078686433    -2.2384465999     0.6065441488
Bq         2.4105841006    -2.1815359638     0.2241690525
Bq         2.2821897790    -2.2526742589     0.7021379229
Bq         2.4362629649    -2.1673083047     0.1285752784
Bq         2.2565109146    -2.2669019179     0.7977316970
Bq         2.4619418292    -2.1530806457     0.0329815043
Bq         2.2308320503    -2.2811295770     0.8933254711
Bq         2.4876206936    -2.1388529867    -0.0626122698
Bq         2.3592263719    -2.2099912818     0.4153566006
Bq         2.3298564571    -2.1252362468     0.5246909143
Bq         2.3812141857    -2.0967809288     0.3335033661
Bq         2.3041775928    -2.1394639058     0.6202846884
Bq         2.4068930500    -2.0825532697     0.2379095920
Bq         2.2784987284    -2.1536915649     0.7158784625
Bq         2.4325719144    -2.0683256107     0.1423158179
Bq         2.2528198641    -2.1679192239     0.8114722366
Bq         2.4582507787    -2.0540979517     0.0467220438
Bq         2.2271409998    -2.1821468829     0.9070660107
Bq         2.4839296430    -2.0398702926    -0.0488717303
Bq         2.3555353214    -2.1110085878     0.4290971402
Bq         2.3261654065    -2.0262535528     0.5384314539
Bq         2.3775231352    -1.9977982347     0.3472439057
Bq         2.3004865422    -2.0404812118     0.6340252280
Bq         2.4032019995    -1.9835705757     0.2516501316
Bq         2.2748076779    -2.0547088708     0.7296190020
Bq         2.4288808638    -1.9693429167     0.1560563575
Bq         2.2491288136    -2.0689365299     0.8252127761
Bq         2.4545597282    -1.9551152576     0.0604625834
Bq         2.2234499493    -2.0831641889     0.9208065502
Bq         2.4802385925    -1.9408875986    -0.0351311907
Bq         2.3518442709    -2.0120258937     0.4428376798
Bq         2.3224743560    -1.9272708587     0.5521719934
Bq         2.3738320847    -1.8988155407     0.3609844452
Bq         2.2967954917    -1.9414985178     0.6477657675
Bq         2.3995109490    -1.8845878817     0.2653906711
Bq         2.2711166274    -1.9557261768     0.7433595416
Bq         2.4251898133    -1.8703602226     0.1697968970
Bq         2.2454377630    -1.9699538358     0.8389533157
Bq         2.4508686776    -1.8561325636     0.0742031229
Bq         2.2197588987    -1.9841814949     0.9345470898
Bq         2.4765475419    -1.8419049046    -0.0213906512
Bq         2.3481532203    -1.9130431997     0.4565782193
Bq         2.3187833055    -1.8282881647     0.5659125330
Bq         2.3701410341    -1.7998328466     0.3747249848
Bq         2.2931044412    -1.8425158237     0.6615063071
Bq         2.3958198984    -1.7856051876     0.2791312107
Bq         2.2674255768    -1.8567434828     0.7571000812
Bq         2.4214987628    -1.7713775286     0.1835374366
Bq         2.2417467125    -1.8709711418     0.8526938553
Bq         2.4471776271    -1.7571498696     0.0879436625
Bq         2.2160678482    -1.8851988008     0.9482876294
Bq         2.4728564914    -1.7429222105    -0.0076501116
Bq         2.3444621698    -1.8140605057     0.4703187589
Bq         2.3150922549    -1.7293054707     0.5796530725
Bq         2.3664499836    -1.7008501526     0.3884655243
Bq         2.2894133906    -1.7435331297     0.6752468466
Bq         2.3921288479    -1.6866224936     0.2928717502
Bq         2.2637345263    -1.7577607887     0.7708406207
Bq         2.4178077122    -1.6723948346     0.1972779762
Bq         2.2380556620    -1.7719884478     0.8664343948
Bq         2.4434865766    -1.6581671755     0.1016842021
Bq         2.2123767976    -1.7862161068     0.9620281689
Bq         2.4691654409    -1.6439395165     0.0060904280
Bq         2.3407711193    -1.7150778116     0.4840592984
Bq         2.3114012044    -1.6303227766     0.5933936121
Bq         2.3627589330    -1.6018674586     0.4022060639
Bq         2.2857223401    -1.6445504357     0.6889873862
Bq         2.3884377974    -1.5876397995     0.3066122898
Bq         2.2600434758    -1.6587780947     0.7845811603
Bq         2.4141166617    -1.5734121405     0.2110185157
Bq         2.2343646114    -1.6730057537     0.8801749344
Bq         2.4397955260    -1.5591844815     0.1154247416
Bq         2.2086857471    -1.6872334127     0.9757687085
Bq         2.4654743903    -1.5449568225     0.0198309675
Bq         2.3370800687    -1.6160951176     0.4977998380
Bq         2.3077101539    -1.5313400826     0.6071341517
Bq         2.3590678825    -1.5028847645     0.4159466035
Bq         2.2820312895    -1.5455677416     0.7027279257
Bq         2.3847467468    -1.4886571055     0.3203528294
Bq         2.2563524252    -1.5597954007     0.7983216998
Bq         2.4104256112    -1.4744294465     0.2247590553
Bq         2.2306735609    -1.5740230597     0.8939154739
Bq         2.4361044755    -1.4602017875     0.1291652812
Bq         2.2049946966    -1.5882507187     0.9895092480
Bq         2.4617833398    -1.4459741284     0.0335715071
Bq         2.3333890182    -1.5171124236     0.5115403776
Bq         2.3040191033    -1.4323573886     0.6208746912
Bq         2.3553768320    -1.4039020705     0.4296871430
Bq         2.2783402390    -1.4465850476     0.7164684653
Bq         2.3810556963    -1.3896744115     0.3340933689
Bq         2.2526613747    -1.4608127066     0.8120622394
Bq         2.4067345606    -1.3754467524     0.2384995948
Bq         2.2269825104    -1.4750403656     0.9076560135
Bq         2.4324134249    -1.3612190934     0.1429058207
Bq         2.2013036460    -1.4892680247     1.0032497876
Bq         2.4580922893    -1.3469914344     0.0473120466
Bq         2.3296979677    -1.4181297295     0.5252809171
Bq         2.3003280528    -1.3333746945     0.6346152308
Bq         2.3516857814    -1.3049193765     0.4434276826
Bq         2.2746491885    -1.3476023536     0.7302090049
Bq         2.3773646458    -1.2906917174     0.3478339085
Bq         2.2489703242    -1.3618300126     0.8258027790
Bq         2.4030435101    -1.2764640584     0.2522401344
Bq         2.2232914598    -1.3760576716     0.9213965531
Bq         2.4287223744    -1.2622363994     0.1566463603
Bq         2.1976125955    -1.3902853306     1.0169903271
Bq         2.4544012387    -1.2480087404     0.0610525862
Bq         2.3260069171    -1.3191470355     0.5390214567
Bq         2.2966370023    -1.2343920005     0.6483557703
Bq         2.3479947309    -1.2059366824     0.4571682221
Bq         2.2709581379    -1.2486196595     0.7439495444
Bq         2.3736735952    -1.1917090234     0.3615744480
Bq         2.2452792736    -1.2628473185     0.8395433185
Bq         2.3993524596    -1.1774813644     0.2659806739
Bq         2.2196004093    -1.2770749776     0.9351370926
Bq         2.4250313239    -1.1632537054     0.1703868999
Bq         2.1939215450    -1.2913026366     1.0307308667
Bq         2.4507101882    -1.1490260463     0.0747931258
Bq         2.3223158666    -1.2201643415     0.5527619962
Bq         2.2929459517    -1.1354093065     0.6620963099
Bq         2.3443036804    -1.1069539884     0.4709087617
Bq         2.2672670874    -1.1496369655     0.7576900840
Bq         2.3699825447    -1.0927263294     0.3753149876
Bq         2.2415882231    -1.1638646245     0.8532838581
Bq         2.3956614090    -1.0784986703     0.2797212135
Bq         2.2159093588    -1.1780922835     0.9488776322
Bq         2.4213402733    -1.0642710113     0.1841274394
Bq         2.1902304944    -1.1923199426     1.0444714063
Bq         2.4470191377    -1.0500433523     0.0885336653
Bq         2.3186248161    -1.1211816474     0.5665025358
Bq         2.2892549012    -1.0364266124     0.6758368494
Bq         2.3406126298    -1.0079712944     0.4846493013
Bq         2.2635760369    -1.0506542714     0.7714306235
Bq         2.3662914942    -0.9937436353     0.3890555272
Bq         2.2378971725    -1.0648819305     0.8670243976
Bq         2.3919703585    -0.9795159763     0.2934617531
Bq         2.2122183082    -1.0791095895     0.9626181717
Bq         2.4176492228    -0.9652883173     0.1978679790
Bq         2.1865394439    -1.0933372485     1.0582119458
Bq         2.4433280871    -0.9510606583     0.1022742049
Bq         2.3149337655    -1.0221989534     0.5802430754
Bq         2.2855638507    -0.9374439184     0.6895773890
Bq         2.3369215793    -0.9089886003     0.4983898408
Bq         2.2598849863    -0.9516715774     0.7851711631
Bq         2.3626004436    -0.8947609413     0.4027960667

1
2
3
4
5
6
7
8
9
10
11
12
13
14
15
16
17
18
19
20
21
22
23
24
25
26
27
28
29
30
31
32
33
34
35
36
37
38
39
40
41
42
43
44
45
46
47
48
49
50
51
52
53
54
55
56
57
58
59
60
61
62
63
64
65
66
67
68
69
70
71
72
73
74
75
76
77
78
79
80
81
82
83
84
85
86
87
88
89
90
91
92
93
94
95
96
97
98
99
100
101
102
103
104
105
106
107
108
109
110
111
112
113
114
115
116
117
118
119
120
121
122
123
124
125
126
127
128
129
130
131
132
133
134
135
136
137
138
139
140
141
142
143
144
145
146
147
148
149
150
151
152
153
154
155
156
157
158
159
160
161
162
163
164
165
166
167
168
169
170
171
172
173
174
175
176
177
178
179
180
181
182
183
184
185
186
187
188
189
190
191
192
193
194
195
196
197
198
199
200
201
202
203
204
205
206
207
208
209
210
211
212
213
214
215
216
217
218
219
220
221
222
223
224
225
226
227
228
229
230
231
232
233
234
235
236

