%nproc=8
%mem=1000MB
# rb3lyp/6-311+g** NMR geom=connectivity

Title

0 1
C    -4.0500558   -0.5771862    0.8136712
H    -5.0263804   -1.0082727    1.0024760
C    -3.9381552    0.6617804    0.2400876
H    -4.8252424    1.2338890   -0.0111295
C    -2.6768410    1.2433246    0.0057578
C    -1.4974121    0.5051527    0.2848253
C    -1.6508332   -0.7338728    0.9404026
H    -0.7713646   -1.2730967    1.2633753
C    -2.8898548   -1.2624035    1.1994307
H    -2.9683706   -2.2124563    1.7152676
C    -2.5773185    2.5963696   -0.4192930
H    -3.4870728    3.1412239   -0.6474055
C    -1.3741895    3.2147896   -0.4364030
H    -1.2997315    4.2742019   -0.6578144
C    -0.1719488    2.4994090   -0.1734588
C    -0.2043917    1.1018437    0.0192689
C     1.0513491    3.2042560   -0.0676222
H     1.0427344    4.2819499   -0.1896997
C     2.1942091    2.5487446    0.2579577
H     3.1168527    3.0912848    0.4334727
C     2.2216473    1.1336562    0.2934990
C     1.0486931    0.3945528    0.0302412
C     3.4483363    0.4614633    0.5573939
H     4.3095794    1.0606054    0.8334846
C     3.5427346   -0.8855926    0.4749463
H     4.4731467   -1.3939704    0.7038822
C     2.4490052   -1.6474447   -0.0196319
C     1.2150704   -1.0057258   -0.3013573
C     0.2531113   -1.7434440   -1.0216591
H    -0.6541356   -1.2535051   -1.3462847
C     0.4494193   -3.0628597   -1.3413779
H    -0.3083162   -3.5944309   -1.9054060
C     1.6251726   -3.7207967   -0.9552541
H     1.7670048   -4.7687404   -1.1927019
C     2.6109872   -3.0144177   -0.3183050
H     3.5525612   -3.4902813   -0.0646367
Bq        -3.4863433748     0.5007637214     1.2113849521
Bq        -3.4842194013     0.2398674194     0.6710807708
Bq        -3.4866973704     0.5442464384     1.3014356489
Bq        -3.4838654058     0.1963847023     0.5810300739
Bq        -3.4870513659     0.5877291554     1.3914863458
Bq        -3.4835114102     0.1529019853     0.4909793770
Bq        -3.4852813881     0.3703155704     0.9412328614
Bq        -3.4854644514     0.5038496800     0.9878011773
Bq        -3.4847564602     0.4168842460     0.8076997835
Bq        -3.4858184469     0.5473323970     1.0778518742
Bq        -3.4844024646     0.3734015290     0.7176490866
Bq        -3.4861724425     0.5908151140     1.1679025710
Bq        -3.4840484691     0.3299188120     0.6275983897
Bq        -3.4865264381     0.6342978311     1.2579532679
Bq        -3.4836944735     0.2864360950     0.5375476929
Bq        -3.4868804337     0.6777805481     1.3480039648
Bq        -3.4833404779     0.2429533780     0.4474969960
Bq        -3.4851104558     0.4603669630     0.8977504804
Bq        -3.4852935191     0.5939010727     0.9443187962
Bq        -3.4845855279     0.5069356387     0.7642174025
Bq        -3.4856475147     0.6373837897     1.0343694931
Bq        -3.4842315324     0.4634529217     0.6741667056
Bq        -3.4860015102     0.6808665067     1.1244201900
Bq        -3.4838775368     0.4199702047     0.5841160087
Bq        -3.4863555058     0.7243492237     1.2144708869
Bq        -3.4835235412     0.3764874877     0.4940653118
Bq        -3.4867095014     0.7678319407     1.3045215838
Bq        -3.4831695456     0.3330047707     0.4040146149
Bq        -3.4849395235     0.5504183557     0.8542680994
Bq        -3.4851225868     0.6839524654     0.9008364152
Bq        -3.4844145957     0.5969870314     0.7207350214
Bq        -3.4854765824     0.7274351824     0.9908871121
Bq        -3.4840606001     0.5535043144     0.6306843246
Bq        -3.4858305780     0.7709178994     1.0809378090
Bq        -3.4837066045     0.5100215974     0.5406336277
Bq        -3.4861845735     0.8144006164     1.1709885059
Bq        -3.4833526089     0.4665388804     0.4505829308
Bq        -3.4865385691     0.8578833334     1.2610392027
Bq        -3.4829986134     0.4230561634     0.3605322339
Bq        -3.4847685912     0.6404697484     0.8107857183
Bq        -3.4849516545     0.7740038581     0.8573540342
Bq        -3.4842436634     0.6870384240     0.6772526404
Bq        -3.4853056501     0.8174865751     0.9474047311
Bq        -3.4838896678     0.6435557070     0.5872019435
Bq        -3.4856596457     0.8609692921     1.0374554279
Bq        -3.4835356722     0.6000729900     0.4971512466
Bq        -3.4860136413     0.9044520091     1.1275061248
Bq        -3.4831816767     0.5565902730     0.4071005498
Bq        -3.4863676368     0.9479347261     1.2175568217
Bq        -3.4828276811     0.5131075560     0.3170498529
Bq        -3.4845976590     0.7305211410     0.7673033373
Bq        -3.4847807223     0.8640552507     0.8138716531
Bq        -3.4840727311     0.7770898167     0.6337702594
Bq        -3.4851347178     0.9075379677     0.9039223500
Bq        -3.4837187355     0.7336070997     0.5437195625
Bq        -3.4854887134     0.9510206847     0.9939730469
Bq        -3.4833647400     0.6901243827     0.4536688656
Bq        -3.4858427090     0.9945034017     1.0840237438
Bq        -3.4830107444     0.6466416657     0.3636181687
Bq        -3.4861967046     1.0379861187     1.1740744407
Bq        -3.4826567488     0.6031589487     0.2735674718
Bq        -3.4844267267     0.8205725337     0.7238209563
Bq        -3.4846097900     0.9541066434     0.7703892721
Bq        -3.4839017988     0.8671412094     0.5902878783
Bq        -3.4849637856     0.9975893604     0.8604399690
Bq        -3.4835478033     0.8236584924     0.5002371815
Bq        -3.4853177811     1.0410720774     0.9504906659
Bq        -3.4831938077     0.7801757754     0.4101864846
Bq        -3.4856717767     1.0845547944     1.0405413628
Bq        -3.4828398121     0.7366930584     0.3201357877
Bq        -3.4860257723     1.1280375114     1.1305920596
Bq        -3.4824858165     0.6932103414     0.2300850908
Bq        -3.4842557944     0.9106239264     0.6803385752
Bq        -3.4844388577     1.0441580361     0.7269068911
Bq        -3.4837308666     0.9571926021     0.5468054973
Bq        -3.4847928533     1.0876407531     0.8169575880
Bq        -3.4833768710     0.9137098850     0.4567548004
Bq        -3.4851468489     1.1311234701     0.9070082848
Bq        -3.4830228754     0.8702271680     0.3667041035
Bq        -3.4855008444     1.1746061871     0.9970589817
Bq        -3.4826688798     0.8267444510     0.2766534067
Bq        -3.4858548400     1.2180889041     1.0871096786
Bq        -3.4823148843     0.7832617340     0.1866027098
Bq        -3.4840848621     1.0006753191     0.6368561942
Bq        -3.4842679254     1.1342094287     0.6834245100
Bq        -3.4835599343     1.0472439947     0.5033231163
Bq        -3.4846219210     1.1776921457     0.7734752069
Bq        -3.4832059387     1.0037612777     0.4132724194
Bq        -3.4849759166     1.2211748627     0.8635259038
Bq        -3.4828519431     0.9602785607     0.3232217225
Bq        -3.4853299122     1.2646575797     0.9535766007
Bq        -3.4824979476     0.9167958437     0.2331710256
Bq        -3.4856839077     1.3081402968     1.0436272976
Bq        -3.4821439520     0.8733131267     0.1431203287
Bq        -3.4839139299     1.0907267117     0.5933738132
Bq        -3.4840969932     1.2242608214     0.6399421290
Bq        -3.4833890020     1.1372953874     0.4598407352
Bq        -3.4844509887     1.2677435384     0.7299928259
Bq        -3.4830350064     1.0938126704     0.3697900384
Bq        -3.4848049843     1.3112262554     0.8200435228
Bq        -3.4826810109     1.0503299534     0.2797393415
Bq        -3.4851589799     1.3547089724     0.9100942197
Bq        -3.4823270153     1.0068472364     0.1896886446
Bq        -3.4855129755     1.3981916894     1.0001449165
Bq        -3.4819730197     0.9633645194     0.0996379477
Bq        -3.4837429976     1.1807781044     0.5498914321
Bq        -3.4839260609     1.3143122141     0.5964597480
Bq        -3.4832180697     1.2273467801     0.4163583542
Bq        -3.4842800565     1.3577949311     0.6865104449
Bq        -3.4828640742     1.1838640631     0.3263076573
Bq        -3.4846340520     1.4012776481     0.7765611417
Bq        -3.4825100786     1.1403813461     0.2362569604
Bq        -3.4849880476     1.4447603651     0.8666118386
Bq        -3.4821560830     1.0968986291     0.1462062636
Bq        -3.4853420432     1.4882430821     0.9566625355
Bq        -3.4818020874     1.0534159120     0.0561555667
Bq        -3.4835720653     1.2708294971     0.5064090511
Bq        -3.4837551286     1.4043636067     0.5529773669
Bq        -3.4830471375     1.3173981727     0.3728759732
Bq        -3.4841091242     1.4478463237     0.6430280638
Bq        -3.4826931419     1.2739154557     0.2828252763
Bq        -3.4844631198     1.4913290408     0.7330787607
Bq        -3.4823391463     1.2304327387     0.1927745794
Bq        -3.4848171153     1.5348117578     0.8231294576
Bq        -3.4819851507     1.1869500217     0.1027238825
Bq        -3.4851711109     1.5782944748     0.9131801545
Bq        -3.4816311552     1.1434673047     0.0126731856
Bq        -3.4834011330     1.3608808897     0.4629266701
Bq        -3.4835841963     1.4944149994     0.5094949859
Bq        -3.4828762052     1.4074495654     0.3293935921
Bq        -3.4839381919     1.5378977164     0.5995456828
Bq        -3.4825222096     1.3639668484     0.2393428953
Bq        -3.4842921875     1.5813804334     0.6895963797
Bq        -3.4821682140     1.3204841314     0.1492921984
Bq        -3.4846461831     1.6248631504     0.7796470766
Bq        -3.4818142185     1.2770014144     0.0592415015
Bq        -3.4850001786     1.6683458674     0.8696977734
Bq        -3.4814602229     1.2335186974    -0.0308091954
Bq        -3.4832302008     1.4509322824     0.4194442890
Bq        -3.4834132641     1.5844663921     0.4660126049
Bq        -3.4827052729     1.4975009581     0.2859112111
Bq        -3.4837672596     1.6279491091     0.5560633018
Bq        -3.4823512773     1.4540182411     0.1958605142
Bq        -3.4841212552     1.6714318261     0.6461139986
Bq        -3.4819972818     1.4105355241     0.1058098173
Bq        -3.4844752508     1.7149145431     0.7361646955
Bq        -3.4816432862     1.3670528071     0.0157591205
Bq        -3.4848292464     1.7583972601     0.8262153924
Bq        -3.4812892906     1.3235700901    -0.0742915764
Bq        -3.4830592685     1.5409836751     0.3759619080
Bq        -3.4832423318     1.6745177848     0.4225302238
Bq        -3.4825343406     1.5875523507     0.2424288301
Bq        -3.4835963274     1.7180005018     0.5125809207
Bq        -3.4821803451     1.5440696337     0.1523781332
Bq        -3.4839503229     1.7614832188     0.6026316176
Bq        -3.4818263495     1.5005869167     0.0623274363
Bq        -3.4843043185     1.8049659358     0.6926823145
Bq        -3.4814723539     1.4571041997    -0.0277232606
Bq        -3.4846583141     1.8484486528     0.7827330114
Bq        -3.4811183583     1.4136214827    -0.1177739574
Bq        -3.4828883362     1.6310350678     0.3324795270
Bq        -3.4830713995     1.7645691774     0.3790478428
Bq        -3.4823634084     1.6776037434     0.1989464490
Bq        -3.4834253951     1.8080518944     0.4690985397
Bq        -3.4820094128     1.6341210264     0.1088957522
Bq        -3.4837793907     1.8515346114     0.5591492366
Bq        -3.4816554172     1.5906383094     0.0188450553
Bq        -3.4841333862     1.8950173284     0.6491999335
Bq        -3.4813014216     1.5471555924    -0.0712056416
Bq        -3.4844873818     1.9385000454     0.7392506303
Bq        -3.4809474261     1.5036728754    -0.1612563385
Bq        -3.4827174039     1.7210864604     0.2889971459
Bq        -3.4829004672     1.8546205701     0.3355654618
Bq        -3.4821924761     1.7676551361     0.1554640680
Bq        -3.4832544628     1.8981032871     0.4256161587
Bq        -3.4818384805     1.7241724191     0.0654133711
Bq        -3.4836084584     1.9415860041     0.5156668555
Bq        -3.4814844849     1.6806897021    -0.0246373257
Bq        -3.4839624540     1.9850687211     0.6057175524
Bq        -3.4811304894     1.6372069851    -0.1146880226
Bq        -3.4843164495     2.0285514381     0.6957682493
Bq        -3.4807764938     1.5937242681    -0.2047387195
Bq        -3.4825464717     1.8111378531     0.2455147649
Bq        -3.4827295350     1.9446719628     0.2920830807
Bq        -3.4820215438     1.8577065288     0.1119816870
Bq        -3.4830835305     1.9881546798     0.3821337776
Bq        -3.4816675482     1.8142238118     0.0219309901
Bq        -3.4834375261     2.0316373968     0.4721844745
Bq        -3.4813135527     1.7707410947    -0.0681197068
Bq        -3.4837915217     2.0751201138     0.5622351714
Bq        -3.4809595571     1.7272583777    -0.1581704037
Bq        -3.4841455173     2.1186028308     0.6522858683
Bq        -3.4806055615     1.6837756607    -0.2482211005
Bq        -3.4823755394     1.9011892458     0.2020323839
Bq        -3.4825586027     2.0347233554     0.2486006997
Bq        -3.4818506115     1.9477579214     0.0684993060
Bq        -3.4829125983     2.0782060724     0.3386513966
Bq        -3.4814966160     1.9042752044    -0.0215513909
Bq        -3.4832665938     2.1216887894     0.4287020935
Bq        -3.4811426204     1.8607924874    -0.1116020878

1
2
3
4
5
6
7
8
9
10
11
12
13
14
15
16
17
18
19
20
21
22
23
24
25
26
27
28
29
30
31
32
33
34
35
36
37
38
39
40
41
42
43
44
45
46
47
48
49
50
51
52
53
54
55
56
57
58
59
60
61
62
63
64
65
66
67
68
69
70
71
72
73
74
75
76
77
78
79
80
81
82
83
84
85
86
87
88
89
90
91
92
93
94
95
96
97
98
99
100
101
102
103
104
105
106
107
108
109
110
111
112
113
114
115
116
117
118
119
120
121
122
123
124
125
126
127
128
129
130
131
132
133
134
135
136
137
138
139
140
141
142
143
144
145
146
147
148
149
150
151
152
153
154
155
156
157
158
159
160
161
162
163
164
165
166
167
168
169
170
171
172
173
174
175
176
177
178
179
180
181
182
183
184
185
186
187
188
189
190
191
192
193
194
195
196
197
198
199
200
201
202
203
204
205
206
207
208
209
210
211
212
213
214
215
216
217
218
219
220
221
222
223
224
225
226
227
228
229
230
231
232
233
234
235
236

