%nproc=8
%mem=1000MB
# rb3lyp/6-311+g** NMR geom=connectivity

Title

0 1
C    -4.0500558   -0.5771862    0.8136712
H    -5.0263804   -1.0082727    1.0024760
C    -3.9381552    0.6617804    0.2400876
H    -4.8252424    1.2338890   -0.0111295
C    -2.6768410    1.2433246    0.0057578
C    -1.4974121    0.5051527    0.2848253
C    -1.6508332   -0.7338728    0.9404026
H    -0.7713646   -1.2730967    1.2633753
C    -2.8898548   -1.2624035    1.1994307
H    -2.9683706   -2.2124563    1.7152676
C    -2.5773185    2.5963696   -0.4192930
H    -3.4870728    3.1412239   -0.6474055
C    -1.3741895    3.2147896   -0.4364030
H    -1.2997315    4.2742019   -0.6578144
C    -0.1719488    2.4994090   -0.1734588
C    -0.2043917    1.1018437    0.0192689
C     1.0513491    3.2042560   -0.0676222
H     1.0427344    4.2819499   -0.1896997
C     2.1942091    2.5487446    0.2579577
H     3.1168527    3.0912848    0.4334727
C     2.2216473    1.1336562    0.2934990
C     1.0486931    0.3945528    0.0302412
C     3.4483363    0.4614633    0.5573939
H     4.3095794    1.0606054    0.8334846
C     3.5427346   -0.8855926    0.4749463
H     4.4731467   -1.3939704    0.7038822
C     2.4490052   -1.6474447   -0.0196319
C     1.2150704   -1.0057258   -0.3013573
C     0.2531113   -1.7434440   -1.0216591
H    -0.6541356   -1.2535051   -1.3462847
C     0.4494193   -3.0628597   -1.3413779
H    -0.3083162   -3.5944309   -1.9054060
C     1.6251726   -3.7207967   -0.9552541
H     1.7670048   -4.7687404   -1.1927019
C     2.6109872   -3.0144177   -0.3183050
H     3.5525612   -3.4902813   -0.0646367
Bq         3.4833379725    -3.7620380858     0.8733206576
Bq         3.8022320828    -3.5491128770     0.1712028599
Bq         3.4434762088    -3.7886537369     0.9610853823
Bq         3.8420938466    -3.5224972259     0.0834381352
Bq         3.6427850277    -3.6555754814     0.5222617588
Bq         3.5919167905    -3.5857981498     0.6342597339
Bq         3.6716403181    -3.5325668476     0.4587302845
Bq         3.5520550268    -3.6124138009     0.7220244587
Bq         3.7115020819    -3.5059511965     0.3709655598
Bq         3.5121932630    -3.6390294520     0.8097891834
Bq         3.7513638457    -3.4793355454     0.2832008351
Bq         3.4723314992    -3.6656451031     0.8975539081
Bq         3.7912256095    -3.4527198943     0.1954361104
Bq         3.4324697354    -3.6922607542     0.9853186328
Bq         3.8310873733    -3.4261042432     0.1076713857
Bq         3.6317785543    -3.5591824987     0.5464950092
Bq         3.5809103172    -3.4894051671     0.6584929844
Bq         3.6606338447    -3.4361738649     0.4829635350
Bq         3.5410485534    -3.5160208182     0.7462577091
Bq         3.7004956085    -3.4095582138     0.3951988103
Bq         3.5011867896    -3.5426364693     0.8340224338
Bq         3.7403573723    -3.3829425627     0.3074340856
Bq         3.4613250258    -3.5692521204     0.9217871585
Bq         3.7802191361    -3.3563269116     0.2196693608
Bq         3.4214632620    -3.5958677715     1.0095518833
Bq         3.8200808999    -3.3297112605     0.1319046361
Bq         3.6207720810    -3.4627895160     0.5707282597
Bq         3.5699038438    -3.3930121844     0.6827262349
Bq         3.6496273714    -3.3397808822     0.5071967854
Bq         3.5300420800    -3.4196278355     0.7704909596
Bq         3.6894891352    -3.3131652311     0.4194320607
Bq         3.4901803162    -3.4462434866     0.8582556843
Bq         3.7293508989    -3.2865495800     0.3316673360
Bq         3.4503185524    -3.4728591377     0.9460204090
Bq         3.7692126627    -3.2599339288     0.2439026113
Bq         3.4104567886    -3.4994747888     1.0337851337
Bq         3.8090744265    -3.2333182777     0.1561378866
Bq         3.6097656076    -3.3663965333     0.5949615102
Bq         3.5588973704    -3.2966192017     0.7069594853
Bq         3.6386208980    -3.2433878995     0.5314300359
Bq         3.5190356066    -3.3232348528     0.7947242100
Bq         3.6784826618    -3.2167722484     0.4436653112
Bq         3.4791738428    -3.3498505039     0.8824889347
Bq         3.7183444256    -3.1901565972     0.3559005865
Bq         3.4393120791    -3.3764661550     0.9702536595
Bq         3.7582061894    -3.1635409461     0.2681358618
Bq         3.3994503153    -3.4030818061     1.0580183842
Bq         3.7980679531    -3.1369252950     0.1803711370
Bq         3.5987591342    -3.2700035506     0.6191947606
Bq         3.5478908971    -3.2002262190     0.7311927358
Bq         3.6276144246    -3.1469949167     0.5556632864
Bq         3.5080291333    -3.2268418701     0.8189574605
Bq         3.6674761884    -3.1203792656     0.4678985616
Bq         3.4681673695    -3.2534575212     0.9067221852
Bq         3.7073379522    -3.0937636145     0.3801338369
Bq         3.4283056057    -3.2800731723     0.9944869099
Bq         3.7471997160    -3.0671479634     0.2923691122
Bq         3.3884438419    -3.3066888234     1.0822516346
Bq         3.7870614798    -3.0405323123     0.2046043875
Bq         3.5877526608    -3.1736105679     0.6434280111
Bq         3.5368844237    -3.1038332362     0.7554259862
Bq         3.6166079513    -3.0506019340     0.5798965368
Bq         3.4970226599    -3.1304488874     0.8431907109
Bq         3.6564697150    -3.0239862829     0.4921318121
Bq         3.4571608961    -3.1570645385     0.9309554357
Bq         3.6963314788    -2.9973706318     0.4043670874
Bq         3.4172991323    -3.1836801896     1.0187201604
Bq         3.7361932426    -2.9707549807     0.3166023627
Bq         3.3774373685    -3.2102958407     1.1064848851
Bq         3.7760550064    -2.9441393296     0.2288376380
Bq         3.5767461875    -3.0772175851     0.6676612615
Bq         3.5258779503    -3.0074402535     0.7796592367
Bq         3.6056014779    -2.9542089513     0.6041297873
Bq         3.4860161865    -3.0340559046     0.8674239614
Bq         3.6454632417    -2.9275933002     0.5163650626
Bq         3.4461544227    -3.0606715558     0.9551886861
Bq         3.6853250055    -2.9009776491     0.4286003378
Bq         3.4062926589    -3.0872872069     1.0429534108
Bq         3.7251867692    -2.8743619980     0.3408356131
Bq         3.3664308952    -3.1139028580     1.1307181355
Bq         3.7650485330    -2.8477463469     0.2530708884
Bq         3.5657397141    -2.9808246024     0.6918945120
Bq         3.5148714769    -2.9110472708     0.8038924872
Bq         3.5945950045    -2.8578159686     0.6283630377
Bq         3.4750097131    -2.9376629219     0.8916572119
Bq         3.6344567683    -2.8312003175     0.5405983130
Bq         3.4351479494    -2.9642785730     0.9794219366
Bq         3.6743185321    -2.8045846664     0.4528335883
Bq         3.3952861856    -2.9908942241     1.0671866613
Bq         3.7141802959    -2.7779690153     0.3650688636
Bq         3.3554244218    -3.0175098753     1.1549513860
Bq         3.7540420597    -2.7513533642     0.2773041389
Bq         3.5547332407    -2.8844316197     0.7161277624
Bq         3.5038650036    -2.8146542881     0.8281257376
Bq         3.5835885311    -2.7614229859     0.6525962882
Bq         3.4640032398    -2.8412699392     0.9158904623
Bq         3.6234502949    -2.7348073348     0.5648315635
Bq         3.4241414760    -2.8678855903     1.0036551870
Bq         3.6633120587    -2.7081916837     0.4770668388
Bq         3.3842797122    -2.8945012414     1.0914199117
Bq         3.7031738225    -2.6815760326     0.3893021140
Bq         3.3444179484    -2.9211168925     1.1791846365
Bq         3.7430355863    -2.6549603815     0.3015373893
Bq         3.5437267673    -2.7880386370     0.7403610129
Bq         3.4928585302    -2.7182613054     0.8523589881
Bq         3.5725820578    -2.6650300032     0.6768295386
Bq         3.4529967664    -2.7448769565     0.9401237128
Bq         3.6124438216    -2.6384143521     0.5890648139
Bq         3.4131350026    -2.7714926076     1.0278884375
Bq         3.6523055853    -2.6117987010     0.5013000892
Bq         3.3732732388    -2.7981082587     1.1156531622
Bq         3.6921673491    -2.5851830499     0.4135353645
Bq         3.3334114750    -2.8247239098     1.2034178869
Bq         3.7320291129    -2.5585673988     0.3257706398
Bq         3.5327202940    -2.6916456543     0.7645942634
Bq         3.4818520568    -2.6218683227     0.8765922385
Bq         3.5615755844    -2.5686370205     0.7010627891
Bq         3.4419902930    -2.6484839738     0.9643569632
Bq         3.6014373482    -2.5420213694     0.6132980644
Bq         3.4021285292    -2.6750996249     1.0521216880
Bq         3.6412991120    -2.5154057183     0.5255333397
Bq         3.3622667655    -2.7017152760     1.1398864127
Bq         3.6811608758    -2.4887900672     0.4377686150
Bq         3.3224050017    -2.7283309271     1.2276511374
Bq         3.7210226395    -2.4621744160     0.3500038903
Bq         3.5217138206    -2.5952526716     0.7888275138
Bq         3.4708455834    -2.5254753400     0.9008254890
Bq         3.5505691110    -2.4722440378     0.7252960396
Bq         3.4309838197    -2.5520909911     0.9885902137
Bq         3.5904308748    -2.4456283867     0.6375313148
Bq         3.3911220559    -2.5787066422     1.0763549384
Bq         3.6302926386    -2.4190127355     0.5497665901
Bq         3.3512602921    -2.6053222933     1.1641196631
Bq         3.6701544024    -2.3923970844     0.4620018654
Bq         3.3113985283    -2.6319379444     1.2518843878
Bq         3.7100161662    -2.3657814333     0.3742371407
Bq         3.5107073472    -2.4988596889     0.8130607643
Bq         3.4598391101    -2.4290823573     0.9250587394
Bq         3.5395626376    -2.3758510550     0.7495292900
Bq         3.4199773463    -2.4556980084     1.0128234642
Bq         3.5794244014    -2.3492354039     0.6617645653
Bq         3.3801155825    -2.4823136595     1.1005881889
Bq         3.6192861652    -2.3226197528     0.5739998406
Bq         3.3402538187    -2.5089293106     1.1883529136
Bq         3.6591479290    -2.2960041017     0.4862351159
Bq         3.3003920549    -2.5355449617     1.2761176383
Bq         3.6990096928    -2.2693884506     0.3984703912
Bq         3.4997008739    -2.4024667062     0.8372940147
Bq         3.4488326367    -2.3326893746     0.9492919899
Bq         3.5285561643    -2.2794580723     0.7737625405
Bq         3.4089708729    -2.3593050257     1.0370567146
Bq         3.5684179281    -2.2528424212     0.6859978158
Bq         3.3691091091    -2.3859206768     1.1248214393
Bq         3.6082796919    -2.2262267701     0.5982330911
Bq         3.3292473453    -2.4125363279     1.2125861640
Bq         3.6481414556    -2.1996111190     0.5104683663
Bq         3.2893855816    -2.4391519790     1.3003508888
Bq         3.6880032194    -2.1729954679     0.4227036416
Bq         3.4886944005    -2.3060737234     0.8615272652
Bq         3.4378261633    -2.2362963918     0.9735252404
Bq         3.5175496909    -2.1830650896     0.7979957909
Bq         3.3979643995    -2.2629120429     1.0612899651
Bq         3.5574114547    -2.1564494385     0.7102310662
Bq         3.3581026358    -2.2895276941     1.1490546898
Bq         3.5972732185    -2.1298337874     0.6224663415
Bq         3.3182408720    -2.3161433452     1.2368194145
Bq         3.6371349823    -2.1032181363     0.5347016168
Bq         3.2783791082    -2.3427589963     1.3245841392
Bq         3.6769967461    -2.0766024852     0.4469368921
Bq         3.4776879271    -2.2096807407     0.8857605156
Bq         3.4268196900    -2.1399034091     0.9977584908
Bq         3.5065432175    -2.0866721069     0.8222290414
Bq         3.3869579262    -2.1665190602     1.0855232155
Bq         3.5464049813    -2.0600564558     0.7344643167
Bq         3.3470961624    -2.1931347113     1.1732879402
Bq         3.5862667451    -2.0334408047     0.6466995920
Bq         3.3072343986    -2.2197503624     1.2610526650
Bq         3.6261285089    -2.0068251536     0.5589348673
Bq         3.2673726348    -2.2463660136     1.3488173897
Bq         3.6659902727    -1.9802095025     0.4711701425
Bq         3.4666814537    -2.1132877580     0.9099937661
Bq         3.4158132166    -2.0435104264     1.0219917413
Bq         3.4955367442    -1.9902791242     0.8464622918
Bq         3.3759514528    -2.0701260775     1.1097564660
Bq         3.5353985079    -1.9636634731     0.7586975671
Bq         3.3360896890    -2.0967417286     1.1975211907
Bq         3.5752602717    -1.9370478220     0.6709328424
Bq         3.2962279252    -2.1233573797     1.2852859154
Bq         3.6151220355    -1.9104321709     0.5831681177
Bq         3.2563661614    -2.1499730308     1.3730506401
Bq         3.6549837993    -1.8838165198     0.4954033930
Bq         3.4556749804    -2.0168947753     0.9342270166
Bq         3.4048067432    -1.9471174437     1.0462249917
Bq         3.4845302708    -1.8938861415     0.8706955423
Bq         3.3649449794    -1.9737330948     1.1339897164
Bq         3.5243920346    -1.8672704904     0.7829308176
Bq         3.3250832156    -2.0003487459     1.2217544412
Bq         3.5642537984    -1.8406548393     0.6951660929
Bq         3.2852214519    -2.0269643970     1.3095191659
Bq         3.6041155622    -1.8140391882     0.6074013682

1
2
3
4
5
6
7
8
9
10
11
12
13
14
15
16
17
18
19
20
21
22
23
24
25
26
27
28
29
30
31
32
33
34
35
36
37
38
39
40
41
42
43
44
45
46
47
48
49
50
51
52
53
54
55
56
57
58
59
60
61
62
63
64
65
66
67
68
69
70
71
72
73
74
75
76
77
78
79
80
81
82
83
84
85
86
87
88
89
90
91
92
93
94
95
96
97
98
99
100
101
102
103
104
105
106
107
108
109
110
111
112
113
114
115
116
117
118
119
120
121
122
123
124
125
126
127
128
129
130
131
132
133
134
135
136
137
138
139
140
141
142
143
144
145
146
147
148
149
150
151
152
153
154
155
156
157
158
159
160
161
162
163
164
165
166
167
168
169
170
171
172
173
174
175
176
177
178
179
180
181
182
183
184
185
186
187
188
189
190
191
192
193
194
195
196
197
198
199
200
201
202
203
204
205
206
207
208
209
210
211
212
213
214
215
216
217
218
219
220
221
222
223
224
225
226
227
228
229
230
231
232
233
234
235
236

