%nproc=8
%mem=1000MB
# rb3lyp/6-311+g** NMR geom=connectivity

Title

0 1
C    -4.0500558   -0.5771862    0.8136712
H    -5.0263804   -1.0082727    1.0024760
C    -3.9381552    0.6617804    0.2400876
H    -4.8252424    1.2338890   -0.0111295
C    -2.6768410    1.2433246    0.0057578
C    -1.4974121    0.5051527    0.2848253
C    -1.6508332   -0.7338728    0.9404026
H    -0.7713646   -1.2730967    1.2633753
C    -2.8898548   -1.2624035    1.1994307
H    -2.9683706   -2.2124563    1.7152676
C    -2.5773185    2.5963696   -0.4192930
H    -3.4870728    3.1412239   -0.6474055
C    -1.3741895    3.2147896   -0.4364030
H    -1.2997315    4.2742019   -0.6578144
C    -0.1719488    2.4994090   -0.1734588
C    -0.2043917    1.1018437    0.0192689
C     1.0513491    3.2042560   -0.0676222
H     1.0427344    4.2819499   -0.1896997
C     2.1942091    2.5487446    0.2579577
H     3.1168527    3.0912848    0.4334727
C     2.2216473    1.1336562    0.2934990
C     1.0486931    0.3945528    0.0302412
C     3.4483363    0.4614633    0.5573939
H     4.3095794    1.0606054    0.8334846
C     3.5427346   -0.8855926    0.4749463
H     4.4731467   -1.3939704    0.7038822
C     2.4490052   -1.6474447   -0.0196319
C     1.2150704   -1.0057258   -0.3013573
C     0.2531113   -1.7434440   -1.0216591
H    -0.6541356   -1.2535051   -1.3462847
C     0.4494193   -3.0628597   -1.3413779
H    -0.3083162   -3.5944309   -1.9054060
C     1.6251726   -3.7207967   -0.9552541
H     1.7670048   -4.7687404   -1.1927019
C     2.6109872   -3.0144177   -0.3183050
H     3.5525612   -3.4902813   -0.0646367
Bq         2.2586738123    -2.6053222933     0.6678790116
Bq         2.5775679226    -2.3923970844    -0.0342387861
Bq         2.2188120485    -2.6319379444     0.7556437363
Bq         2.6174296864    -2.3657814333    -0.1220035108
Bq         2.4181208675    -2.4988596889     0.3168201127
Bq         2.3672526303    -2.4290823573     0.4288180879
Bq         2.4469761579    -2.3758510550     0.2532886385
Bq         2.3273908665    -2.4556980084     0.5165828126
Bq         2.4868379217    -2.3492354039     0.1655239138
Bq         2.2875291027    -2.4823136595     0.6043475373
Bq         2.5266996855    -2.3226197528     0.0777591891
Bq         2.2476673389    -2.5089293106     0.6921122620
Bq         2.5665614492    -2.2960041017    -0.0100055357
Bq         2.2078055752    -2.5355449617     0.7798769868
Bq         2.6064232130    -2.2693884506    -0.0977702604
Bq         2.4071143941    -2.4024667062     0.3410533632
Bq         2.3562461569    -2.3326893746     0.4530513384
Bq         2.4359696845    -2.2794580723     0.2775218889
Bq         2.3163843932    -2.3593050257     0.5408160631
Bq         2.4758314483    -2.2528424212     0.1897571642
Bq         2.2765226294    -2.3859206768     0.6285807878
Bq         2.5156932121    -2.2262267701     0.1019924395
Bq         2.2366608656    -2.4125363279     0.7163455125
Bq         2.5555549759    -2.1996111190     0.0142277148
Bq         2.1967991018    -2.4391519790     0.8041102372
Bq         2.5954167397    -2.1729954679    -0.0735370099
Bq         2.3961079207    -2.3060737234     0.3652866136
Bq         2.3452396836    -2.2362963918     0.4772845888
Bq         2.4249632111    -2.1830650896     0.3017551394
Bq         2.3053779198    -2.2629120429     0.5650493135
Bq         2.4648249749    -2.1564494385     0.2139904147
Bq         2.2655161560    -2.2895276941     0.6528140382
Bq         2.5046867387    -2.1298337874     0.1262256900
Bq         2.2256543922    -2.3161433452     0.7405787630
Bq         2.5445485025    -2.1032181363     0.0384609653
Bq         2.1857926284    -2.3427589963     0.8283434877
Bq         2.5844102663    -2.0766024852    -0.0493037595
Bq         2.3851014474    -2.2096807407     0.3895198641
Bq         2.3342332102    -2.1399034091     0.5015178393
Bq         2.4139567378    -2.0866721069     0.3259883899
Bq         2.2943714464    -2.1665190602     0.5892825640
Bq         2.4538185016    -2.0600564558     0.2382236651
Bq         2.2545096826    -2.1931347113     0.6770472887
Bq         2.4936802653    -2.0334408047     0.1504589404
Bq         2.2146479188    -2.2197503624     0.7648120134
Bq         2.5335420291    -2.0068251536     0.0626942157
Bq         2.1747861550    -2.2463660136     0.8525767381
Bq         2.5734037929    -1.9802095025    -0.0250705090
Bq         2.3740949740    -2.1132877580     0.4137531146
Bq         2.3232267368    -2.0435104264     0.5257510897
Bq         2.4029502644    -1.9902791242     0.3502216403
Bq         2.2833649730    -2.0701260775     0.6135158144
Bq         2.4428120282    -1.9636634731     0.2624569156
Bq         2.2435032092    -2.0967417286     0.7012805392
Bq         2.4826737920    -1.9370478220     0.1746921909
Bq         2.2036414455    -2.1233573797     0.7890452639
Bq         2.5225355558    -1.9104321709     0.0869274662
Bq         2.1637796817    -2.1499730308     0.8768099886
Bq         2.5623973195    -1.8838165198    -0.0008372585
Bq         2.3630885006    -2.0168947753     0.4379863650
Bq         2.3122202635    -1.9471174437     0.5499843402
Bq         2.3919437910    -1.8938861415     0.3744548908
Bq         2.2723584997    -1.9737330948     0.6377490649
Bq         2.4318055548    -1.8672704904     0.2866901661
Bq         2.2324967359    -2.0003487459     0.7255137896
Bq         2.4716673186    -1.8406548393     0.1989254413
Bq         2.1926349721    -2.0269643970     0.8132785143
Bq         2.5115290824    -1.8140391882     0.1111607166
Bq         2.1527732083    -2.0535800481     0.9010432390
Bq         2.5513908462    -1.7874235371     0.0233959919
Bq         2.3520820272    -1.9205017926     0.4622196155
Bq         2.3012137901    -1.8507244610     0.5742175907
Bq         2.3809373177    -1.7974931588     0.3986881412
Bq         2.2613520263    -1.8773401121     0.6619823154
Bq         2.4207990814    -1.7708775077     0.3109234165
Bq         2.2214902625    -1.9039557632     0.7497470401
Bq         2.4606608452    -1.7442618566     0.2231586918
Bq         2.1816284987    -1.9305714143     0.8375117648
Bq         2.5005226090    -1.7176462055     0.1353939671
Bq         2.1417667349    -1.9571870654     0.9252764895
Bq         2.5403843728    -1.6910305543     0.0476292424
Bq         2.3410755539    -1.8241088099     0.4864528659
Bq         2.2902073167    -1.7543314783     0.5984508411
Bq         2.3699308443    -1.7011001761     0.4229213917
Bq         2.2503455529    -1.7809471294     0.6862155658
Bq         2.4097926081    -1.6744845250     0.3351566670
Bq         2.2104837891    -1.8075627805     0.7739802905
Bq         2.4496543719    -1.6478688739     0.2473919423
Bq         2.1706220253    -1.8341784316     0.8617450152
Bq         2.4895161356    -1.6212532227     0.1596272175
Bq         2.1307602616    -1.8607940827     0.9495097400
Bq         2.5293778994    -1.5946375716     0.0718624928
Bq         2.3300690805    -1.7277158272     0.5106861164
Bq         2.2792008433    -1.6579384956     0.6226840916
Bq         2.3589243709    -1.6047071934     0.4471546421
Bq         2.2393390795    -1.6845541467     0.7104488163
Bq         2.3987861347    -1.5780915422     0.3593899174
Bq         2.1994773158    -1.7111697978     0.7982135410
Bq         2.4386478985    -1.5514758911     0.2716251927
Bq         2.1596155520    -1.7377854489     0.8859782657
Bq         2.4785096623    -1.5248602400     0.1838604680
Bq         2.1197537882    -1.7644011000     0.9737429904
Bq         2.5183714261    -1.4982445889     0.0960957433
Bq         2.3190626071    -1.6313228445     0.5349193669
Bq         2.2681943700    -1.5615455129     0.6469173420
Bq         2.3479178975    -1.5083142106     0.4713878926
Bq         2.2283326062    -1.5881611640     0.7346820667
Bq         2.3877796613    -1.4816985595     0.3836231679
Bq         2.1884708424    -1.6147768151     0.8224467915
Bq         2.4276414251    -1.4550829084     0.2958584432
Bq         2.1486090786    -1.6413924662     0.9102115162
Bq         2.4675031889    -1.4284672573     0.2080937185
Bq         2.1087473148    -1.6680081173     0.9979762409
Bq         2.5073649527    -1.4018516062     0.1203289937
Bq         2.3080561338    -1.5349298617     0.5591526173
Bq         2.2571878966    -1.4651525301     0.6711505925
Bq         2.3369114242    -1.4119212279     0.4956211431
Bq         2.2173261328    -1.4917681812     0.7589153172
Bq         2.3767731880    -1.3853055768     0.4078564183
Bq         2.1774643690    -1.5183838324     0.8466800419
Bq         2.4166349517    -1.3586899257     0.3200916936
Bq         2.1376026052    -1.5449994835     0.9344447666
Bq         2.4564967155    -1.3320742746     0.2323269689
Bq         2.0977408414    -1.5716151346     1.0222094913
Bq         2.4963584793    -1.3054586235     0.1445622442
Bq         2.2970496604    -1.4385368790     0.5833858678
Bq         2.2461814232    -1.3687595474     0.6953838429
Bq         2.3259049508    -1.3155282452     0.5198543935
Bq         2.2063196594    -1.3953751985     0.7831485677
Bq         2.3657667146    -1.2889125941     0.4320896688
Bq         2.1664578956    -1.4219908496     0.8709132924
Bq         2.4056284784    -1.2622969430     0.3443249441
Bq         2.1265961319    -1.4486065008     0.9586780171
Bq         2.4454902422    -1.2356812919     0.2565602194
Bq         2.0867343681    -1.4752221519     1.0464427418
Bq         2.4853520059    -1.2090656408     0.1687954947
Bq         2.2860431870    -1.3421438963     0.6076191182
Bq         2.2351749498    -1.2723665647     0.7196170934
Bq         2.3148984774    -1.2191352625     0.5440876440
Bq         2.1953131861    -1.2989822158     0.8073818181
Bq         2.3547602412    -1.1925196114     0.4563229193
Bq         2.1554514223    -1.3255978669     0.8951465428
Bq         2.3946220050    -1.1659039603     0.3685581945
Bq         2.1155896585    -1.3522135180     0.9829112675
Bq         2.4344837688    -1.1392883092     0.2807934698
Bq         2.0757278947    -1.3788291691     1.0706759922
Bq         2.4743455326    -1.1126726581     0.1930287451
Bq         2.2750367136    -1.2457509136     0.6318523687
Bq         2.2241684765    -1.1759735820     0.7438503439
Bq         2.3038920040    -1.1227422798     0.5683208944
Bq         2.1843067127    -1.2025892331     0.8316150686
Bq         2.3437537678    -1.0961266287     0.4805561697
Bq         2.1444449489    -1.2292048842     0.9193797933
Bq         2.3836155316    -1.0695109776     0.3927914450
Bq         2.1045831851    -1.2558205353     1.0071445180
Bq         2.4234772954    -1.0428953265     0.3050267203
Bq         2.0647214213    -1.2824361864     1.0949092427
Bq         2.4633390592    -1.0162796754     0.2172619956
Bq         2.2640302403    -1.1493579309     0.6560856191
Bq         2.2131620031    -1.0795805993     0.7680835943
Bq         2.2928855307    -1.0263492971     0.5925541449
Bq         2.1733002393    -1.1061962504     0.8558483190
Bq         2.3327472945    -0.9997336460     0.5047894202
Bq         2.1334384755    -1.1328119015     0.9436130437
Bq         2.3726090583    -0.9731179949     0.4170246955
Bq         2.0935767117    -1.1594275526     1.0313777685
Bq         2.4124708220    -0.9465023438     0.3292599708
Bq         2.0537149480    -1.1860432037     1.1191424932
Bq         2.4523325858    -0.9198866927     0.2414952460
Bq         2.2530237669    -1.0529649482     0.6803188696
Bq         2.2021555297    -0.9831876166     0.7923168448
Bq         2.2818790573    -0.9299563144     0.6167873953
Bq         2.1622937659    -1.0098032677     0.8800815695
Bq         2.3217408211    -0.9033406633     0.5290226706
Bq         2.1224320022    -1.0364189188     0.9678462942
Bq         2.3616025849    -0.8767250122     0.4412579459
Bq         2.0825702384    -1.0630345699     1.0556110189
Bq         2.4014643487    -0.8501093610     0.3534932212
Bq         2.0427084746    -1.0896502210     1.1433757436
Bq         2.4413261125    -0.8234937099     0.2657284965
Bq         2.2420172935    -0.9565719655     0.7045521201
Bq         2.1911490564    -0.8867946339     0.8165500952
Bq         2.2708725839    -0.8335633317     0.6410206458
Bq         2.1512872926    -0.9134102850     0.9043148199
Bq         2.3107343477    -0.8069476805     0.5532559211
Bq         2.1114255288    -0.9400259361     0.9920795447
Bq         2.3505961115    -0.7803320294     0.4654911964
Bq         2.0715637650    -0.9666415872     1.0798442694
Bq         2.3904578753    -0.7537163783     0.3777264717
Bq         2.0317020012    -0.9932572383     1.1676089941
Bq         2.4303196391    -0.7271007272     0.2899617470
Bq         2.2310108201    -0.8601789828     0.7287853705
Bq         2.1801425830    -0.7904016512     0.8407833457
Bq         2.2598661106    -0.7371703489     0.6652538963
Bq         2.1402808192    -0.8170173023     0.9285480704
Bq         2.2997278743    -0.7105546978     0.5774891716
Bq         2.1004190554    -0.8436329534     1.0163127951
Bq         2.3395896381    -0.6839390467     0.4897244468
Bq         2.0605572916    -0.8702486045     1.1040775198
Bq         2.3794514019    -0.6573233956     0.4019597221

1
2
3
4
5
6
7
8
9
10
11
12
13
14
15
16
17
18
19
20
21
22
23
24
25
26
27
28
29
30
31
32
33
34
35
36
37
38
39
40
41
42
43
44
45
46
47
48
49
50
51
52
53
54
55
56
57
58
59
60
61
62
63
64
65
66
67
68
69
70
71
72
73
74
75
76
77
78
79
80
81
82
83
84
85
86
87
88
89
90
91
92
93
94
95
96
97
98
99
100
101
102
103
104
105
106
107
108
109
110
111
112
113
114
115
116
117
118
119
120
121
122
123
124
125
126
127
128
129
130
131
132
133
134
135
136
137
138
139
140
141
142
143
144
145
146
147
148
149
150
151
152
153
154
155
156
157
158
159
160
161
162
163
164
165
166
167
168
169
170
171
172
173
174
175
176
177
178
179
180
181
182
183
184
185
186
187
188
189
190
191
192
193
194
195
196
197
198
199
200
201
202
203
204
205
206
207
208
209
210
211
212
213
214
215
216
217
218
219
220
221
222
223
224
225
226
227
228
229
230
231
232
233
234
235
236

