%nproc=8
%mem=1000MB
# rb3lyp/6-311+g** NMR geom=connectivity

Title

0 1
C    -4.0500558   -0.5771862    0.8136712
H    -5.0263804   -1.0082727    1.0024760
C    -3.9381552    0.6617804    0.2400876
H    -4.8252424    1.2338890   -0.0111295
C    -2.6768410    1.2433246    0.0057578
C    -1.4974121    0.5051527    0.2848253
C    -1.6508332   -0.7338728    0.9404026
H    -0.7713646   -1.2730967    1.2633753
C    -2.8898548   -1.2624035    1.1994307
H    -2.9683706   -2.2124563    1.7152676
C    -2.5773185    2.5963696   -0.4192930
H    -3.4870728    3.1412239   -0.6474055
C    -1.3741895    3.2147896   -0.4364030
H    -1.2997315    4.2742019   -0.6578144
C    -0.1719488    2.4994090   -0.1734588
C    -0.2043917    1.1018437    0.0192689
C     1.0513491    3.2042560   -0.0676222
H     1.0427344    4.2819499   -0.1896997
C     2.1942091    2.5487446    0.2579577
H     3.1168527    3.0912848    0.4334727
C     2.2216473    1.1336562    0.2934990
C     1.0486931    0.3945528    0.0302412
C     3.4483363    0.4614633    0.5573939
H     4.3095794    1.0606054    0.8334846
C     3.5427346   -0.8855926    0.4749463
H     4.4731467   -1.3939704    0.7038822
C     2.4490052   -1.6474447   -0.0196319
C     1.2150704   -1.0057258   -0.3013573
C     0.2531113   -1.7434440   -1.0216591
H    -0.6541356   -1.2535051   -1.3462847
C     0.4494193   -3.0628597   -1.3413779
H    -0.3083162   -3.5944309   -1.9054060
C     1.6251726   -3.7207967   -0.9552541
H     1.7670048   -4.7687404   -1.1927019
C     2.6109872   -3.0144177   -0.3183050
H     3.5525612   -3.4902813   -0.0646367
Bq        -1.8271061437     3.2676619195     0.1265547705
Bq        -1.8194221811     3.2185632847    -0.0671725656
Bq        -1.8309481251     3.2922112368     0.2234184386
Bq        -1.8155801997     3.1940139673    -0.1640362337
Bq        -1.8347901064     3.3167605542     0.3202821067
Bq        -1.8117382184     3.1694646500    -0.2608999018
Bq        -1.8386320877     3.3413098716     0.4171457748
Bq        -1.8078962371     3.1449153326    -0.3577635699
Bq        -1.8424740690     3.3658591890     0.5140094429
Bq        -1.8040542557     3.1203660152    -0.4546272380
Bq        -1.8232641624     3.2431126021     0.0296911024
Bq        -1.8261331895     3.3646017514     0.1020247411
Bq        -1.8184492268     3.3155031167    -0.0917025951
Bq        -1.8299751708     3.3891510688     0.1988884092
Bq        -1.8146072455     3.2909537993    -0.1885662632
Bq        -1.8338171522     3.4137003862     0.2957520773
Bq        -1.8107652642     3.2664044819    -0.2854299313
Bq        -1.8376591335     3.4382497035     0.3926157454
Bq        -1.8069232829     3.2418551645    -0.3822935993
Bq        -1.8415011148     3.4627990209     0.4894794135
Bq        -1.8030813015     3.2173058471    -0.4791572674
Bq        -1.8222912082     3.3400524340     0.0051610730
Bq        -1.8251602353     3.4615415833     0.0774947117
Bq        -1.8174762726     3.4124429486    -0.1162326245
Bq        -1.8290022166     3.4860909007     0.1743583798
Bq        -1.8136342913     3.3878936312    -0.2130962926
Bq        -1.8328441979     3.5106402181     0.2712220479
Bq        -1.8097923100     3.3633443138    -0.3099599607
Bq        -1.8366861793     3.5351895355     0.3680857159
Bq        -1.8059503286     3.3387949965    -0.4068236288
Bq        -1.8405281606     3.5597388528     0.4649493840
Bq        -1.8021083473     3.3142456791    -0.5036872969
Bq        -1.8213182539     3.4369922660    -0.0193689564
Bq        -1.8241872810     3.5584814153     0.0529646822
Bq        -1.8165033184     3.5093827805    -0.1407626539
Bq        -1.8280292624     3.5830307327     0.1498283503
Bq        -1.8126613371     3.4848334632    -0.2376263220
Bq        -1.8318712437     3.6075800500     0.2466920184
Bq        -1.8088193557     3.4602841458    -0.3344899901
Bq        -1.8357132250     3.6321293674     0.3435556865
Bq        -1.8049773744     3.4357348284    -0.4313536582
Bq        -1.8395552064     3.6566786848     0.4404193546
Bq        -1.8011353931     3.4111855110    -0.5282173263
Bq        -1.8203452997     3.5339320979    -0.0438989858
Bq        -1.8232143268     3.6554212472     0.0284346528
Bq        -1.8155303642     3.6063226125    -0.1652926834
Bq        -1.8270563082     3.6799705646     0.1252983209
Bq        -1.8116883828     3.5817732951    -0.2621563514
Bq        -1.8308982895     3.7045198820     0.2221619890
Bq        -1.8078464015     3.5572239777    -0.3590200195
Bq        -1.8347402708     3.7290691993     0.3190256571
Bq        -1.8040044202     3.5326746603    -0.4558836876
Bq        -1.8385822521     3.7536185167     0.4158893252
Bq        -1.8001624388     3.5081253430    -0.5527473557
Bq        -1.8193723455     3.6308719298    -0.0684290153
Bq        -1.8222413726     3.7523610792     0.0039046234
Bq        -1.8145574099     3.7032624444    -0.1898227128
Bq        -1.8260833539     3.7769103965     0.1007682915
Bq        -1.8107154286     3.6787131270    -0.2866863809
Bq        -1.8299253353     3.8014597139     0.1976319596
Bq        -1.8068734473     3.6541638097    -0.3835500490
Bq        -1.8337673166     3.8260090313     0.2944956277
Bq        -1.8030314660     3.6296144923    -0.4804137171
Bq        -1.8376092979     3.8505583487     0.3913592958
Bq        -1.7991894846     3.6050651749    -0.5772773851
Bq        -1.8183993913     3.7278117618    -0.0929590447
Bq        -1.8212684184     3.8493009111    -0.0206254060
Bq        -1.8135844557     3.8002022763    -0.2143527422
Bq        -1.8251103997     3.8738502285     0.0762382621
Bq        -1.8097424744     3.7756529590    -0.3112164103
Bq        -1.8289523810     3.8983995458     0.1731019301
Bq        -1.8059004931     3.7511036416    -0.4080800784
Bq        -1.8327943624     3.9229488632     0.2699655982
Bq        -1.8020585117     3.7265543242    -0.5049437465
Bq        -1.8366363437     3.9474981806     0.3668292663
Bq        -1.7982165304     3.7020050068    -0.6018074146
Bq        -1.8174264370     3.8247515937    -0.1174890741
Bq        -1.8202954642     3.9462407430    -0.0451554355
Bq        -1.8126115015     3.8971421083    -0.2388827716
Bq        -1.8241374455     3.9707900604     0.0517082326
Bq        -1.8087695202     3.8725927909    -0.3357464397
Bq        -1.8279794268     3.9953393778     0.1485719007
Bq        -1.8049275388     3.8480434735    -0.4326101078
Bq        -1.8318214081     4.0198886952     0.2454355688
Bq        -1.8010855575     3.8234941562    -0.5294737759
Bq        -1.8356633895     4.0444380125     0.3422992369
Bq        -1.7972435762     3.7989448388    -0.6263374440
Bq        -1.8164534828     3.9216914257    -0.1420191035
Bq        -1.8193225099     4.0431805750    -0.0696854649
Bq        -1.8116385473     3.9940819402    -0.2634128011
Bq        -1.8231644913     4.0677298924     0.0271782032
Bq        -1.8077965659     3.9695326228    -0.3602764692
Bq        -1.8270064726     4.0922792097     0.1240418713
Bq        -1.8039545846     3.9449833055    -0.4571401372
Bq        -1.8308484539     4.1168285271     0.2209055394
Bq        -1.8001126033     3.9204339881    -0.5540038053
Bq        -1.8346904352     4.1413778445     0.3177692075
Bq        -1.7962706220     3.8958846707    -0.6508674734
Bq        -1.8154805286     4.0186312576    -0.1665491330
Bq        -1.8183495557     4.1401204069    -0.0942154943
Bq        -1.8106655930     4.0910217722    -0.2879428305
Bq        -1.8221915370     4.1646697243     0.0026481738
Bq        -1.8068236117     4.0664724548    -0.3848064986
Bq        -1.8260335184     4.1892190417     0.0995118419
Bq        -1.8029816304     4.0419231374    -0.4816701667
Bq        -1.8298754997     4.2137683590     0.1963755100
Bq        -1.7991396491     4.0173738200    -0.5785338348
Bq        -1.8337174810     4.2383176764     0.2932391780
Bq        -1.7952976677     3.9928245027    -0.6753975029
Bq        -1.8145075744     4.1155710895    -0.1910791624
Bq        -1.8173766015     4.2370602389    -0.1187455237
Bq        -1.8096926388     4.1879616041    -0.3124728599
Bq        -1.8212185828     4.2616095562    -0.0218818557
Bq        -1.8058506575     4.1634122867    -0.4093365280
Bq        -1.8250605641     4.2861588736     0.0749818124
Bq        -1.8020086762     4.1388629694    -0.5062001961
Bq        -1.8289025455     4.3107081910     0.1718454805
Bq        -1.7981666948     4.1143136520    -0.6030638642
Bq        -1.8327445268     4.3352575084     0.2687091486
Bq        -1.7943247135     4.0897643346    -0.6999275323
Bq        -1.8135346201     4.2125109215    -0.2156091918
Bq        -1.8164036473     4.3340000708    -0.1432755532
Bq        -1.8087196846     4.2849014360    -0.3370028893
Bq        -1.8202456286     4.3585493882    -0.0464118851
Bq        -1.8048777033     4.2603521187    -0.4338665574
Bq        -1.8240876099     4.3830987055     0.0504517830
Bq        -1.8010357219     4.2358028013    -0.5307302255
Bq        -1.8279295912     4.4076480229     0.1473154511
Bq        -1.7971937406     4.2112534839    -0.6275938936
Bq        -1.8317715726     4.4321973403     0.2441791192
Bq        -1.7933517593     4.1867041665    -0.7244575617
Bq        -1.8125616659     4.3094507534    -0.2401392213
Bq        -1.8154306930     4.4309399027    -0.1678055826
Bq        -1.8077467304     4.3818412680    -0.3615329188
Bq        -1.8192726744     4.4554892201    -0.0709419145
Bq        -1.8039047490     4.3572919506    -0.4583965869
Bq        -1.8231146557     4.4800385375     0.0259217536
Bq        -1.8000627677     4.3327426332    -0.5552602550
Bq        -1.8269566370     4.5045878549     0.1227854217
Bq        -1.7962207864     4.3081933159    -0.6521239230
Bq        -1.8307986183     4.5291371722     0.2196490898
Bq        -1.7923788051     4.2836439985    -0.7489875911
Bq        -1.8115887117     4.4063905854    -0.2646692507
Bq        -1.7641569724    -0.4160516942     1.0626591526
Bq        -1.7564730098    -0.4651503290     0.8689318164
Bq        -1.7679989537    -0.3915023768     1.1595228207
Bq        -1.7526310284    -0.4896996464     0.7720681484
Bq        -1.7718409351    -0.3669530595     1.2563864888
Bq        -1.7487890471    -0.5142489637     0.6752044803
Bq        -1.7756829164    -0.3424037421     1.3532501569
Bq        -1.7449470658    -0.5387982811     0.5783408122
Bq        -1.7795248977    -0.3178544247     1.4501138250
Bq        -1.7411050844    -0.5633475985     0.4814771441
Bq        -1.7603149911    -0.4406010116     0.9657954845
Bq        -1.7631840182    -0.3191118623     1.0381291232
Bq        -1.7555000555    -0.3682104970     0.8444017870
Bq        -1.7670259995    -0.2945625449     1.1349927913
Bq        -1.7516580742    -0.3927598144     0.7475381189
Bq        -1.7708679809    -0.2700132275     1.2318564594
Bq        -1.7478160929    -0.4173091318     0.6506744508
Bq        -1.7747099622    -0.2454639102     1.3287201275
Bq        -1.7439741115    -0.4418584492     0.5538107827
Bq        -1.7785519435    -0.2209145928     1.4255837956
Bq        -1.7401321302    -0.4664077665     0.4569471147
Bq        -1.7593420369    -0.3436611797     0.9412654551
Bq        -1.7622110640    -0.2221720303     1.0135990938
Bq        -1.7545271013    -0.2712706651     0.8198717576
Bq        -1.7660530453    -0.1976227130     1.1104627619
Bq        -1.7506851200    -0.2958199825     0.7230080895
Bq        -1.7698950266    -0.1730733956     1.2073264300
Bq        -1.7468431387    -0.3203692998     0.6261444214
Bq        -1.7737370080    -0.1485240782     1.3041900980
Bq        -1.7430011573    -0.3449186172     0.5292807533
Bq        -1.7775789893    -0.1239747608     1.4010537661
Bq        -1.7391591760    -0.3694679346     0.4324170852
Bq        -1.7583690826    -0.2467213477     0.9167354257
Bq        -1.7612381097    -0.1252321984     0.9890690643
Bq        -1.7535541471    -0.1743308332     0.7953417282
Bq        -1.7650800911    -0.1006828810     1.0859327324
Bq        -1.7497121658    -0.1988801505     0.6984780601
Bq        -1.7689220724    -0.0761335637     1.1827964005
Bq        -1.7458701844    -0.2234294679     0.6016143920
Bq        -1.7727640537    -0.0515842463     1.2796600686
Bq        -1.7420282031    -0.2479787853     0.5047507239
Bq        -1.7766060351    -0.0270349289     1.3765237367
Bq        -1.7381862218    -0.2725281027     0.4078870558
Bq        -1.7573961284    -0.1497815158     0.8922053963
Bq        -1.7602651555    -0.0282923665     0.9645390349
Bq        -1.7525811929    -0.0773910012     0.7708116987
Bq        -1.7641071368    -0.0037430491     1.0614027030
Bq        -1.7487392115    -0.1019403186     0.6739480306
Bq        -1.7679491182     0.0208062683     1.1582663711
Bq        -1.7448972302    -0.1264896360     0.5770843626
Bq        -1.7717910995     0.0453555857     1.2551300392
Bq        -1.7410552489    -0.1510389533     0.4802206945
Bq        -1.7756330808     0.0699049030     1.3519937073
Bq        -1.7372132675    -0.1755882707     0.3833570264
Bq        -1.7564231742    -0.0528416838     0.8676753668
Bq        -1.7592922013     0.0686474655     0.9400090055
Bq        -1.7516082386     0.0195488307     0.7462816693

1
2
3
4
5
6
7
8
9
10
11
12
13
14
15
16
17
18
19
20
21
22
23
24
25
26
27
28
29
30
31
32
33
34
35
36
37
38
39
40
41
42
43
44
45
46
47
48
49
50
51
52
53
54
55
56
57
58
59
60
61
62
63
64
65
66
67
68
69
70
71
72
73
74
75
76
77
78
79
80
81
82
83
84
85
86
87
88
89
90
91
92
93
94
95
96
97
98
99
100
101
102
103
104
105
106
107
108
109
110
111
112
113
114
115
116
117
118
119
120
121
122
123
124
125
126
127
128
129
130
131
132
133
134
135
136
137
138
139
140
141
142
143
144
145
146
147
148
149
150
151
152
153
154
155
156
157
158
159
160
161
162
163
164
165
166
167
168
169
170
171
172
173
174
175
176
177
178
179
180
181
182
183
184
185
186
187
188
189
190
191
192
193
194
195
196
197
198
199
200
201
202
203
204
205
206
207
208
209
210
211
212
213
214
215
216
217
218
219
220
221
222
223
224
225
226
227
228
229
230
231
232
233
234
235
236

