%nproc=8
%mem=1000MB
# rb3lyp/6-311+g** NMR geom=connectivity

Title

0 1
C    -4.0500558   -0.5771862    0.8136712
H    -5.0263804   -1.0082727    1.0024760
C    -3.9381552    0.6617804    0.2400876
H    -4.8252424    1.2338890   -0.0111295
C    -2.6768410    1.2433246    0.0057578
C    -1.4974121    0.5051527    0.2848253
C    -1.6508332   -0.7338728    0.9404026
H    -0.7713646   -1.2730967    1.2633753
C    -2.8898548   -1.2624035    1.1994307
H    -2.9683706   -2.2124563    1.7152676
C    -2.5773185    2.5963696   -0.4192930
H    -3.4870728    3.1412239   -0.6474055
C    -1.3741895    3.2147896   -0.4364030
H    -1.2997315    4.2742019   -0.6578144
C    -0.1719488    2.4994090   -0.1734588
C    -0.2043917    1.1018437    0.0192689
C     1.0513491    3.2042560   -0.0676222
H     1.0427344    4.2819499   -0.1896997
C     2.1942091    2.5487446    0.2579577
H     3.1168527    3.0912848    0.4334727
C     2.2216473    1.1336562    0.2934990
C     1.0486931    0.3945528    0.0302412
C     3.4483363    0.4614633    0.5573939
H     4.3095794    1.0606054    0.8334846
C     3.5427346   -0.8855926    0.4749463
H     4.4731467   -1.3939704    0.7038822
C     2.4490052   -1.6474447   -0.0196319
C     1.2150704   -1.0057258   -0.3013573
C     0.2531113   -1.7434440   -1.0216591
H    -0.6541356   -1.2535051   -1.3462847
C     0.4494193   -3.0628597   -1.3413779
H    -0.3083162   -3.5944309   -1.9054060
C     1.6251726   -3.7207967   -0.9552541
H     1.7670048   -4.7687404   -1.1927019
C     2.6109872   -3.0144177   -0.3183050
H     3.5525612   -3.4902813   -0.0646367
Bq        -1.0877415078     0.0039380824     1.5717644298
Bq        -1.0849095432    -0.3439236537     0.8513588547
Bq        -1.0880955033     0.0474207994     1.6618151266
Bq        -1.0845555476    -0.3874063707     0.7613081578
Bq        -1.0863255255    -0.1699927857     1.2115616422
Bq        -1.0865085888    -0.0364586760     1.2581299581
Bq        -1.0858005976    -0.1234241100     1.0780285643
Bq        -1.0868625843     0.0070240410     1.3481806550
Bq        -1.0854466020    -0.1669068270     0.9879778674
Bq        -1.0872165799     0.0505067580     1.4382313518
Bq        -1.0850926065    -0.2103895440     0.8979271705
Bq        -1.0875705755     0.0939894750     1.5282820487
Bq        -1.0847386109    -0.2538722610     0.8078764737
Bq        -1.0879245711     0.1374721920     1.6183327456
Bq        -1.0843846153    -0.2973549780     0.7178257768
Bq        -1.0861545932    -0.0799413930     1.1680792612
Bq        -1.0863376565     0.0535927167     1.2146475770
Bq        -1.0856296653    -0.0333727173     1.0345461833
Bq        -1.0866916521     0.0970754337     1.3046982739
Bq        -1.0852756698    -0.0768554343     0.9444954864
Bq        -1.0870456476     0.1405581507     1.3947489708
Bq        -1.0849216742    -0.1203381513     0.8544447895
Bq        -1.0873996432     0.1840408677     1.4847996677
Bq        -1.0845676786    -0.1638208683     0.7643940926
Bq        -1.0877536388     0.2275235847     1.5748503646
Bq        -1.0842136830    -0.2073035853     0.6743433957
Bq        -1.0859836609     0.0101099997     1.1245968802
Bq        -1.0861667242     0.1436441094     1.1711651960
Bq        -1.0854587331     0.0566786753     0.9910638022
Bq        -1.0865207198     0.1871268264     1.2612158929
Bq        -1.0851047375     0.0131959583     0.9010131054
Bq        -1.0868747154     0.2306095434     1.3512665898
Bq        -1.0847507419    -0.0302867587     0.8109624085
Bq        -1.0872287109     0.2740922604     1.4413172867
Bq        -1.0843967463    -0.0737694757     0.7209117116
Bq        -1.0875827065     0.3175749774     1.5313679835
Bq        -1.0840427508    -0.1172521927     0.6308610147
Bq        -1.0858127286     0.1001613924     1.0811144991
Bq        -1.0859957919     0.2336955020     1.1276828150
Bq        -1.0852878008     0.1467300680     0.9475814212
Bq        -1.0863497875     0.2771782190     1.2177335119
Bq        -1.0849338052     0.1032473510     0.8575307243
Bq        -1.0867037831     0.3206609360     1.3077842087
Bq        -1.0845798096     0.0597646340     0.7674800274
Bq        -1.0870577787     0.3641436530     1.3978349056
Bq        -1.0842258141     0.0162819170     0.6774293306
Bq        -1.0874117742     0.4076263700     1.4878856025
Bq        -1.0838718185    -0.0272008000     0.5873786337
Bq        -1.0856417964     0.1902127850     1.0376321181
Bq        -1.0858248597     0.3237468947     1.0842004339
Bq        -1.0851168685     0.2367814607     0.9040990402
Bq        -1.0861788552     0.3672296117     1.1742511308
Bq        -1.0847628729     0.1932987437     0.8140483433
Bq        -1.0865328508     0.4107123287     1.2643018277
Bq        -1.0844088774     0.1498160267     0.7239976464
Bq        -1.0868868464     0.4541950457     1.3543525246
Bq        -1.0840548818     0.1063333097     0.6339469495
Bq        -1.0872408420     0.4976777627     1.4444032215
Bq        -1.0837008862     0.0628505927     0.5438962527
Bq        -1.0854708641     0.2802641777     0.9941497371
Bq        -1.0856539274     0.4137982874     1.0407180529
Bq        -1.0849459362     0.3268328534     0.8606166591
Bq        -1.0860079230     0.4572810044     1.1307687498
Bq        -1.0845919407     0.2833501364     0.7705659623
Bq        -1.0863619185     0.5007637214     1.2208194467
Bq        -1.0842379451     0.2398674194     0.6805152654
Bq        -1.0867159141     0.5442464384     1.3108701436
Bq        -1.0838839495     0.1963847023     0.5904645685
Bq        -1.0870699097     0.5877291554     1.4009208404
Bq        -1.0835299539     0.1529019853     0.5004138716
Bq        -1.0852999318     0.3703155704     0.9506673560
Bq        -1.0854829951     0.5038496800     0.9972356719
Bq        -1.0847750040     0.4168842460     0.8171342781
Bq        -1.0858369907     0.5473323970     1.0872863688
Bq        -1.0844210084     0.3734015290     0.7270835812
Bq        -1.0861909863     0.5908151140     1.1773370656
Bq        -1.0840670128     0.3299188120     0.6370328844
Bq        -1.0865449818     0.6342978311     1.2673877625
Bq        -1.0837130172     0.2864360950     0.5469821875
Bq        -1.0868989774     0.6777805481     1.3574384594
Bq        -1.0833590217     0.2429533780     0.4569314906
Bq        -1.0851289995     0.4603669630     0.9071849750
Bq        -1.0853120628     0.5939010727     0.9537532908
Bq        -1.0846040717     0.5069356387     0.7736518971
Bq        -1.0856660584     0.6373837897     1.0438039877
Bq        -1.0842500761     0.4634529217     0.6836012002
Bq        -1.0860200540     0.6808665067     1.1338546846
Bq        -1.0838960805     0.4199702047     0.5935505033
Bq        -1.0863740496     0.7243492237     1.2239053815
Bq        -1.0835420850     0.3764874877     0.5034998064
Bq        -1.0867280451     0.7678319407     1.3139560784
Bq        -1.0831880894     0.3330047707     0.4134491096
Bq        -1.0849580673     0.5504183557     0.8637025940
Bq        -1.0851411306     0.6839524654     0.9102709098
Bq        -1.0844331394     0.5969870314     0.7301695161
Bq        -1.0854951261     0.7274351824     1.0003216067
Bq        -1.0840791438     0.5535043144     0.6401188192
Bq        -1.0858491217     0.7709178994     1.0903723036
Bq        -1.0837251483     0.5100215974     0.5500681223
Bq        -1.0862031173     0.8144006164     1.1804230005
Bq        -1.0833711527     0.4665388804     0.4600174254
Bq        -1.0865571129     0.8578833334     1.2704736973
Bq        -1.0830171571     0.4230561634     0.3699667285
Bq        -1.0847871350     0.6404697484     0.8202202129
Bq        -1.0849701983     0.7740038581     0.8667885288
Bq        -1.0842622071     0.6870384240     0.6866871350
Bq        -1.0853241939     0.8174865751     0.9568392257
Bq        -1.0839082116     0.6435557070     0.5966364381
Bq        -1.0856781894     0.8609692921     1.0468899226
Bq        -1.0835542160     0.6000729900     0.5065857413
Bq        -1.0860321850     0.9044520091     1.1369406194
Bq        -1.0832002204     0.5565902730     0.4165350444
Bq        -1.0863861806     0.9479347261     1.2269913163
Bq        -1.0828462248     0.5131075560     0.3264843475
Bq        -1.0846162027     0.7305211410     0.7767378319
Bq        -1.0847992660     0.8640552507     0.8233061478
Bq        -1.0840912749     0.7770898167     0.6432047540
Bq        -1.0851532616     0.9075379677     0.9133568446
Bq        -1.0837372793     0.7336070997     0.5531540571
Bq        -1.0855072572     0.9510206847     1.0034075415
Bq        -1.0833832837     0.6901243827     0.4631033602
Bq        -1.0858612527     0.9945034017     1.0934582384
Bq        -1.0830292881     0.6466416657     0.3730526633
Bq        -1.0862152483     1.0379861187     1.1835089353
Bq        -1.0826752926     0.6031589487     0.2830019665
Bq        -1.0844452704     0.8205725337     0.7332554509
Bq        -1.0846283337     0.9541066434     0.7798237667
Bq        -1.0839203426     0.8671412094     0.5997223730
Bq        -1.0849823293     0.9975893604     0.8698744636
Bq        -1.0835663470     0.8236584924     0.5096716761
Bq        -1.0853363249     1.0410720774     0.9599251605
Bq        -1.0832123514     0.7801757754     0.4196209792
Bq        -1.0856903205     1.0845547944     1.0499758574
Bq        -1.0828583559     0.7366930584     0.3295702823
Bq        -1.0860443160     1.1280375114     1.1400265543
Bq        -1.0825043603     0.6932103414     0.2395195854
Bq        -1.0842743382     0.9106239264     0.6897730698
Bq        -1.0844574015     1.0441580361     0.7363413857
Bq        -1.0837494103     0.9571926021     0.5562399919
Bq        -1.0848113970     1.0876407531     0.8263920826
Bq        -1.0833954147     0.9137098850     0.4661892950
Bq        -1.0851653926     1.1311234701     0.9164427795
Bq        -1.0830414192     0.8702271680     0.3761385982
Bq        -1.0855193882     1.1746061871     1.0064934763
Bq        -1.0826874236     0.8267444510     0.2860879013
Bq        -1.0858733838     1.2180889041     1.0965441732
Bq        -1.0823334280     0.7832617340     0.1960372044
Bq        -1.0841034059     1.0006753191     0.6462906888
Bq        -1.0842864692     1.1342094287     0.6928590047
Bq        -1.0835784780     1.0472439947     0.5127576109
Bq        -1.0846404648     1.1776921457     0.7829097015
Bq        -1.0832244825     1.0037612777     0.4227069140
Bq        -1.0849944603     1.2211748627     0.8729603984
Bq        -1.0828704869     0.9602785607     0.3326562171
Bq        -1.0853484559     1.2646575797     0.9630110953
Bq        -1.0825164913     0.9167958437     0.2426055202
Bq        -1.0857024515     1.3081402968     1.0530617922
Bq        -1.0821624957     0.8733131267     0.1525548234
Bq        -1.0839324736     1.0907267117     0.6028083078
Bq        -1.0841155369     1.2242608214     0.6493766236
Bq        -1.0834075458     1.1372953874     0.4692752299
Bq        -1.0844695325     1.2677435384     0.7394273205
Bq        -1.0830535502     1.0938126704     0.3792245330
Bq        -1.0848235281     1.3112262554     0.8294780174
Bq        -1.0826995546     1.0503299534     0.2891738361
Bq        -1.0851775236     1.3547089724     0.9195287143
Bq        -1.0823455590     1.0068472364     0.1991231392
Bq        -1.0855315192     1.3981916894     1.0095794112
Bq        -1.0819915635     0.9633645194     0.1090724423
Bq        -1.0837615413     1.1807781044     0.5593259267
Bq        -1.0839446046     1.3143122141     0.6058942426
Bq        -1.0832366135     1.2273467801     0.4257928488
Bq        -1.0842986002     1.3577949311     0.6959449395
Bq        -1.0828826179     1.1838640631     0.3357421519
Bq        -1.0846525958     1.4012776481     0.7859956364
Bq        -1.0825286223     1.1403813461     0.2456914551
Bq        -1.0850065914     1.4447603651     0.8760463332
Bq        -1.0821746268     1.0968986291     0.1556407582
Bq        -1.0853605869     1.4882430821     0.9660970301
Bq        -1.0818206312     1.0534159120     0.0655900613
Bq        -1.0835906091     1.2708294971     0.5158435457
Bq        -1.0837736724     1.4043636067     0.5624118616
Bq        -1.0830656812     1.3173981727     0.3823104678
Bq        -1.0841276679     1.4478463237     0.6524625584
Bq        -1.0827116856     1.2739154557     0.2922597709
Bq        -1.0844816635     1.4913290408     0.7425132553
Bq        -1.0823576901     1.2304327387     0.2022090740
Bq        -1.0848356591     1.5348117578     0.8325639522
Bq        -1.0820036945     1.1869500217     0.1121583771
Bq        -1.0851896547     1.5782944748     0.9226146491
Bq        -1.0816496989     1.1434673047     0.0221076803
Bq        -1.0834196768     1.3608808897     0.4723611647
Bq        -1.0836027401     1.4944149994     0.5189294805
Bq        -1.0828947489     1.4074495654     0.3388280868
Bq        -1.0839567357     1.5378977164     0.6089801774
Bq        -1.0825407534     1.3639668484     0.2487773899
Bq        -1.0843107312     1.5813804334     0.6990308743
Bq        -1.0821867578     1.3204841314     0.1587266930
Bq        -1.0846647268     1.6248631504     0.7890815712
Bq        -1.0818327622     1.2770014144     0.0686759961

1
2
3
4
5
6
7
8
9
10
11
12
13
14
15
16
17
18
19
20
21
22
23
24
25
26
27
28
29
30
31
32
33
34
35
36
37
38
39
40
41
42
43
44
45
46
47
48
49
50
51
52
53
54
55
56
57
58
59
60
61
62
63
64
65
66
67
68
69
70
71
72
73
74
75
76
77
78
79
80
81
82
83
84
85
86
87
88
89
90
91
92
93
94
95
96
97
98
99
100
101
102
103
104
105
106
107
108
109
110
111
112
113
114
115
116
117
118
119
120
121
122
123
124
125
126
127
128
129
130
131
132
133
134
135
136
137
138
139
140
141
142
143
144
145
146
147
148
149
150
151
152
153
154
155
156
157
158
159
160
161
162
163
164
165
166
167
168
169
170
171
172
173
174
175
176
177
178
179
180
181
182
183
184
185
186
187
188
189
190
191
192
193
194
195
196
197
198
199
200
201
202
203
204
205
206
207
208
209
210
211
212
213
214
215
216
217
218
219
220
221
222
223
224
225
226
227
228
229
230
231
232
233
234
235
236

