%nproc=8
%mem=1000MB
# rb3lyp/6-311+g** NMR geom=connectivity

Title

0 1
C    -4.0500558   -0.5771862    0.8136712
H    -5.0263804   -1.0082727    1.0024760
C    -3.9381552    0.6617804    0.2400876
H    -4.8252424    1.2338890   -0.0111295
C    -2.6768410    1.2433246    0.0057578
C    -1.4974121    0.5051527    0.2848253
C    -1.6508332   -0.7338728    0.9404026
H    -0.7713646   -1.2730967    1.2633753
C    -2.8898548   -1.2624035    1.1994307
H    -2.9683706   -2.2124563    1.7152676
C    -2.5773185    2.5963696   -0.4192930
H    -3.4870728    3.1412239   -0.6474055
C    -1.3741895    3.2147896   -0.4364030
H    -1.2997315    4.2742019   -0.6578144
C    -0.1719488    2.4994090   -0.1734588
C    -0.2043917    1.1018437    0.0192689
C     1.0513491    3.2042560   -0.0676222
H     1.0427344    4.2819499   -0.1896997
C     2.1942091    2.5487446    0.2579577
H     3.1168527    3.0912848    0.4334727
C     2.2216473    1.1336562    0.2934990
C     1.0486931    0.3945528    0.0302412
C     3.4483363    0.4614633    0.5573939
H     4.3095794    1.0606054    0.8334846
C     3.5427346   -0.8855926    0.4749463
H     4.4731467   -1.3939704    0.7038822
C     2.4490052   -1.6474447   -0.0196319
C     1.2150704   -1.0057258   -0.3013573
C     0.2531113   -1.7434440   -1.0216591
H    -0.6541356   -1.2535051   -1.3462847
C     0.4494193   -3.0628597   -1.3413779
H    -0.3083162   -3.5944309   -1.9054060
C     1.6251726   -3.7207967   -0.9552541
H     1.7670048   -4.7687404   -1.1927019
C     2.6109872   -3.0144177   -0.3183050
H     3.5525612   -3.4902813   -0.0646367
Bq         3.2987233868     2.1477757584     1.0850114684
Bq         3.3566271989     2.1281218180     0.6897130101
Bq         3.2842474337     2.1526892435     1.1838360830
Bq         3.3711031520     2.1232083330     0.5908883955
Bq         3.2697714807     2.1576027285     1.2826606976
Bq         3.3855791050     2.1182948479     0.4920637809
Bq         3.2552955276     2.1625162136     1.3814853121
Bq         3.4000550581     2.1133813628     0.3932391663
Bq         3.3276752929     2.1379487882     0.8873622392
Bq         3.3139114738     2.2427414887     0.9813252490
Bq         3.3428633798     2.2329145185     0.7836760199
Bq         3.2994355207     2.2476549738     1.0801498636
Bq         3.3573393329     2.2280010334     0.6848514053
Bq         3.2849595677     2.2525684588     1.1789744782
Bq         3.3718152859     2.2230875483     0.5860267907
Bq         3.2704836146     2.2574819439     1.2777990928
Bq         3.3862912390     2.2181740633     0.4872021761
Bq         3.2560076616     2.2623954290     1.3766237074
Bq         3.4007671920     2.2132605782     0.3883775615
Bq         3.3283874268     2.2378280036     0.8825006345
Bq         3.3146236077     2.3426207040     0.9764636443
Bq         3.3435755138     2.3327937339     0.7788144151
Bq         3.3001476546     2.3475341891     1.0752882589
Bq         3.3580514668     2.3278802488     0.6799898005
Bq         3.2856717016     2.3524476742     1.1741128734
Bq         3.3725274199     2.3229667637     0.5811651859
Bq         3.2711957486     2.3573611593     1.2729374880
Bq         3.3870033729     2.3180532786     0.4823405714
Bq         3.2567197955     2.3622746444     1.3717621026
Bq         3.4014793260     2.3131397936     0.3835159568
Bq         3.3290995607     2.3377072190     0.8776390297
Bq         3.3153357416     2.4424999194     0.9716020395
Bq         3.3442876477     2.4326729493     0.7739528103
Bq         3.3008597886     2.4474134045     1.0704266541
Bq         3.3587636008     2.4277594642     0.6751281958
Bq         3.2863838355     2.4523268896     1.1692512687
Bq         3.3732395538     2.4228459791     0.5763035812
Bq         3.2719078825     2.4572403747     1.2680758833
Bq         3.3877155069     2.4179324940     0.4774789666
Bq         3.2574319295     2.4621538598     1.3669004978
Bq         3.4021914599     2.4130190089     0.3786543520
Bq         3.3298116947     2.4375864343     0.8727774249
Bq         3.3160478756     2.5423791348     0.9667404347
Bq         3.3449997817     2.5325521646     0.7690912056
Bq         3.3015719225     2.5472926199     1.0655650493
Bq         3.3594757347     2.5276386796     0.6702665910
Bq         3.2870959695     2.5522061050     1.1643896639
Bq         3.3739516878     2.5227251945     0.5714419764
Bq         3.2726200164     2.5571195900     1.2632142785
Bq         3.3884276408     2.5178117094     0.4726173618
Bq         3.2581440634     2.5620330751     1.3620388931
Bq         3.4029035938     2.5128982243     0.3737927472
Bq         3.3305238286     2.5374656497     0.8679158202
Bq         3.3167600095     2.6422583502     0.9618788300
Bq         3.3457119156     2.6324313800     0.7642296008
Bq         3.3022840565     2.6471718353     1.0607034446
Bq         3.3601878687     2.6275178949     0.6654049862
Bq         3.2878081034     2.6520853203     1.1595280591
Bq         3.3746638217     2.6226044098     0.5665803716
Bq         3.2733321504     2.6569988054     1.2583526737
Bq         3.3891397747     2.6176909248     0.4677557571
Bq         3.2588561973     2.6619122905     1.3571772883
Bq         3.4036157278     2.6127774397     0.3689311425
Bq         3.3312359626     2.6373448651     0.8630542154
Bq         3.3174721435     2.7421375656     0.9570172252
Bq         3.3464240495     2.7323105954     0.7593679960
Bq         3.3029961904     2.7470510506     1.0558418398
Bq         3.3609000026     2.7273971103     0.6605433815
Bq         3.2885202374     2.7519645357     1.1546664544
Bq         3.3753759556     2.7224836252     0.5617187669
Bq         3.2740442843     2.7568780208     1.2534910690
Bq         3.3898519087     2.7175701401     0.4628941523
Bq         3.2595683313     2.7617915059     1.3523156836
Bq         3.4043278617     2.7126566551     0.3640695377
Bq         3.3319480965     2.7372240805     0.8581926106
Bq         3.3181842774     2.8420167809     0.9521556204
Bq         3.3471361835     2.8321898108     0.7545063913
Bq         3.3037083244     2.8469302660     1.0509802350
Bq         3.3616121365     2.8272763257     0.6556817767
Bq         3.2892323713     2.8518437511     1.1498048496
Bq         3.3760880896     2.8223628406     0.5568571621
Bq         3.2747564183     2.8567572362     1.2486294642
Bq         3.3905640426     2.8174493555     0.4580325475
Bq         3.2602804652     2.8616707213     1.3474540788
Bq         3.4050399957     2.8125358704     0.3592079329
Bq         3.3326602304     2.8371032959     0.8533310059
Bq         3.3188964113     2.9418959963     0.9472940157
Bq         3.3478483174     2.9320690261     0.7496447865
Bq         3.3044204583     2.9468094814     1.0461186303
Bq         3.3623242705     2.9271555411     0.6508201719
Bq         3.2899445053     2.9517229665     1.1449432448
Bq         3.3768002235     2.9222420560     0.5519955573
Bq         3.2754685522     2.9566364516     1.2437678594
Bq         3.3912761766     2.9173285709     0.4531709428
Bq         3.2609925992     2.9615499366     1.3425924740
Bq         3.4057521296     2.9124150858     0.3543463282
Bq         3.3333723644     2.9369825112     0.8484694011
Bq         3.3196085453     3.0417752117     0.9424324109
Bq         3.3485604514     3.0319482415     0.7447831817
Bq         3.3051325922     3.0466886968     1.0412570255
Bq         3.3630364044     3.0270347564     0.6459585672
Bq         3.2906566392     3.0516021819     1.1400816401
Bq         3.3775123575     3.0221212714     0.5471339526
Bq         3.2761806862     3.0565156669     1.2389062547
Bq         3.3919883105     3.0172077863     0.4483093380
Bq         3.2617047331     3.0614291520     1.3377308693
Bq         3.4064642636     3.0122943012     0.3494847234
Bq         3.3340844983     3.0368617266     0.8436077963
Bq         3.3203206792     3.1416544271     0.9375708061
Bq         3.3492725853     3.1318274569     0.7399215770
Bq         3.3058447262     3.1465679121     1.0363954207
Bq         3.3637485384     3.1269139718     0.6410969624
Bq         3.2913687731     3.1514813972     1.1352200353
Bq         3.3782244914     3.1220004867     0.5422723478
Bq         3.2768928201     3.1563948823     1.2340446499
Bq         3.3927004444     3.1170870017     0.4434477332
Bq         3.2624168670     3.1613083674     1.3328692645
Bq         3.4071763975     3.1121735166     0.3446231186
Bq         3.3347966323     3.1367409420     0.8387461916
Bq         3.3210328132     3.2415336424     0.9327092014
Bq         3.3499847193     3.2317066723     0.7350599722
Bq         3.3065568601     3.2464471275     1.0315338160
Bq         3.3644606723     3.2267931872     0.6362353576
Bq         3.2920809071     3.2513606126     1.1303584305
Bq         3.3789366253     3.2218797021     0.5374107430
Bq         3.2776049540     3.2562740977     1.2291830451
Bq         3.3934125784     3.2169662170     0.4385861285
Bq         3.2631290010     3.2611875828     1.3280076597
Bq         3.4078885314     3.2120527319     0.3397615139
Bq         3.3355087662     3.2366201574     0.8338845868
Bq         3.3217449471     3.3414128578     0.9278475966
Bq         3.3506968532     3.3315858877     0.7301983674
Bq         3.3072689941     3.3463263429     1.0266722112
Bq         3.3651728062     3.3266724026     0.6313737529
Bq         3.2927930410     3.3512398280     1.1254968258
Bq         3.3796487593     3.3217589175     0.5325491383
Bq         3.2783170880     3.3561533131     1.2243214404
Bq         3.3941247123     3.3168454324     0.4337245237
Bq         3.2638411349     3.3610667981     1.3231460550
Bq         3.4086006654     3.3119319473     0.3348999091
Bq         3.3362209002     3.3364993727     0.8290229820
Bq         3.3224570811     3.4412920732     0.9229859918
Bq         3.3514089871     3.4314651030     0.7253367627
Bq         3.3079811280     3.4462055583     1.0218106064
Bq         3.3658849402     3.4265516179     0.6265121481
Bq         3.2935051750     3.4511190434     1.1206352210
Bq         3.3803608932     3.4216381329     0.5276875335
Bq         3.2790292219     3.4560325284     1.2194598356
Bq         3.3948368463     3.4167246478     0.4288629189
Bq         3.2645532689     3.4609460135     1.3182844502
Bq         3.4093127993     3.4118111627     0.3300383043
Bq         3.3369330341     3.4363785881     0.8241613773
Bq         3.3231692150     3.5411712886     0.9181243871
Bq         3.3521211211     3.5313443184     0.7204751579
Bq         3.3086932619     3.5460847737     1.0169490017
Bq         3.3665970741     3.5264308333     0.6216505433
Bq         3.2942173089     3.5509982587     1.1157736162
Bq         3.3810730272     3.5215173482     0.5228259287
Bq         3.2797413559     3.5559117438     1.2145982308
Bq         3.3955489802     3.5166038632     0.4240013142
Bq         3.2652654028     3.5608252289     1.3134228454
Bq         3.4100249333     3.5116903781     0.3251766996
Bq         3.3376451680     3.5362578035     0.8192997725
Bq         3.3238813489     3.6410505039     0.9132627823
Bq         3.3528332550     3.6312235338     0.7156135531
Bq         3.3094053959     3.6459639890     1.0120873969
Bq         3.3673092081     3.6263100487     0.6167889386
Bq         3.2949294428     3.6508774741     1.1109120115
Bq         3.3817851611     3.6213965636     0.5179643240
Bq         3.2804534898     3.6557909592     1.2097366261
Bq         3.3962611142     3.6164830785     0.4191397094
Bq         3.2659775368     3.6607044443     1.3085612407
Bq         3.4107370672     3.6115695935     0.3203150948
Bq         3.3383573020     3.6361370189     0.8144381677
Bq         3.3245934829     3.7409297193     0.9084011775
Bq         3.3535453890     3.7311027492     0.7107519484
Bq         3.3101175298     3.7458432044     1.0072257921
Bq         3.3680213420     3.7261892641     0.6119273338
Bq         3.2956415768     3.7507566895     1.1060504067
Bq         3.3824972951     3.7212757790     0.5131027192
Bq         3.2811656237     3.7556701746     1.2048750213
Bq         3.3969732481     3.7163622939     0.4142781046
Bq         3.2666896707     3.7605836597     1.3036996359
Bq         3.4114492011     3.7114488088     0.3154534900
Bq         3.3390694359     3.7360162342     0.8095765630
Bq         3.3253056168     3.8408089347     0.9035395728
Bq         3.3542575229     3.8309819645     0.7058903436
Bq         3.3108296638     3.8457224198     1.0023641874
Bq         3.3687334760     3.8260684795     0.6070657290
Bq         3.2963537107     3.8506359049     1.1011888019
Bq         3.3832094290     3.8211549944     0.5082411144
Bq         3.2818777577     3.8555493900     1.2000134165
Bq         3.3976853820     3.8162415093     0.4094164999
Bq         3.2674018046     3.8604628750     1.2988380311
Bq         3.4121613351     3.8113280242     0.3105918853
Bq         3.3397815699     3.8358954496     0.8047149582
Bq         3.3260177508     3.9406881501     0.8986779680
Bq         3.3549696568     3.9308611799     0.7010287388
Bq         3.3115417977     3.9456016352     0.9975025826
Bq         3.3694456099     3.9259476948     0.6022041243

1
2
3
4
5
6
7
8
9
10
11
12
13
14
15
16
17
18
19
20
21
22
23
24
25
26
27
28
29
30
31
32
33
34
35
36
37
38
39
40
41
42
43
44
45
46
47
48
49
50
51
52
53
54
55
56
57
58
59
60
61
62
63
64
65
66
67
68
69
70
71
72
73
74
75
76
77
78
79
80
81
82
83
84
85
86
87
88
89
90
91
92
93
94
95
96
97
98
99
100
101
102
103
104
105
106
107
108
109
110
111
112
113
114
115
116
117
118
119
120
121
122
123
124
125
126
127
128
129
130
131
132
133
134
135
136
137
138
139
140
141
142
143
144
145
146
147
148
149
150
151
152
153
154
155
156
157
158
159
160
161
162
163
164
165
166
167
168
169
170
171
172
173
174
175
176
177
178
179
180
181
182
183
184
185
186
187
188
189
190
191
192
193
194
195
196
197
198
199
200
201
202
203
204
205
206
207
208
209
210
211
212
213
214
215
216
217
218
219
220
221
222
223
224
225
226
227
228
229
230
231
232
233
234
235
236

