%nproc=8
%mem=1000MB
# rb3lyp/6-311+g** NMR geom=connectivity

Title

0 1
C    -4.0500558   -0.5771862    0.8136712
H    -5.0263804   -1.0082727    1.0024760
C    -3.9381552    0.6617804    0.2400876
H    -4.8252424    1.2338890   -0.0111295
C    -2.6768410    1.2433246    0.0057578
C    -1.4974121    0.5051527    0.2848253
C    -1.6508332   -0.7338728    0.9404026
H    -0.7713646   -1.2730967    1.2633753
C    -2.8898548   -1.2624035    1.1994307
H    -2.9683706   -2.2124563    1.7152676
C    -2.5773185    2.5963696   -0.4192930
H    -3.4870728    3.1412239   -0.6474055
C    -1.3741895    3.2147896   -0.4364030
H    -1.2997315    4.2742019   -0.6578144
C    -0.1719488    2.4994090   -0.1734588
C    -0.2043917    1.1018437    0.0192689
C     1.0513491    3.2042560   -0.0676222
H     1.0427344    4.2819499   -0.1896997
C     2.1942091    2.5487446    0.2579577
H     3.1168527    3.0912848    0.4334727
C     2.2216473    1.1336562    0.2934990
C     1.0486931    0.3945528    0.0302412
C     3.4483363    0.4614633    0.5573939
H     4.3095794    1.0606054    0.8334846
C     3.5427346   -0.8855926    0.4749463
H     4.4731467   -1.3939704    0.7038822
C     2.4490052   -1.6474447   -0.0196319
C     1.2150704   -1.0057258   -0.3013573
C     0.2531113   -1.7434440   -1.0216591
H    -0.6541356   -1.2535051   -1.3462847
C     0.4494193   -3.0628597   -1.3413779
H    -0.3083162   -3.5944309   -1.9054060
C     1.6251726   -3.7207967   -0.9552541
H     1.7670048   -4.7687404   -1.1927019
C     2.6109872   -3.0144177   -0.3183050
H     3.5525612   -3.4902813   -0.0646367
Bq         1.3933937968     2.6569988054     0.9829769544
Bq         1.5092014212     2.6176909248     0.1923800377
Bq         1.3789178438     2.6619122905     1.0818015690
Bq         1.5236773742     2.6127774397     0.0935554231
Bq         1.4512976090     2.6373448651     0.5876784960
Bq         1.4375337899     2.7421375656     0.6816415058
Bq         1.4664856960     2.7323105954     0.4839922767
Bq         1.4230578369     2.7470510506     0.7804661204
Bq         1.4809616490     2.7273971103     0.3851676621
Bq         1.4085818838     2.7519645357     0.8792907350
Bq         1.4954376021     2.7224836252     0.2863430475
Bq         1.3941059308     2.7568780208     0.9781153496
Bq         1.5099135551     2.7175701401     0.1875184329
Bq         1.3796299777     2.7617915059     1.0769399642
Bq         1.5243895082     2.7126566551     0.0886938183
Bq         1.4520097429     2.7372240805     0.5828168913
Bq         1.4382459238     2.8420167809     0.6767799011
Bq         1.4671978299     2.8321898108     0.4791306719
Bq         1.4237699708     2.8469302660     0.7756045157
Bq         1.4816737830     2.8272763257     0.3803060573
Bq         1.4092940178     2.8518437511     0.8744291302
Bq         1.4961497360     2.8223628406     0.2814814427
Bq         1.3948180647     2.8567572362     0.9732537448
Bq         1.5106256891     2.8174493555     0.1826568282
Bq         1.3803421117     2.8616707213     1.0720783594
Bq         1.5251016421     2.8125358704     0.0838322136
Bq         1.4527218769     2.8371032959     0.5779552865
Bq         1.4389580578     2.9418959963     0.6719182963
Bq         1.4679099639     2.9320690261     0.4742690671
Bq         1.4244821047     2.9468094814     0.7707429109
Bq         1.4823859169     2.9271555411     0.3754444526
Bq         1.4100061517     2.9517229665     0.8695675255
Bq         1.4968618700     2.9222420560     0.2766198380
Bq         1.3955301987     2.9566364516     0.9683921401
Bq         1.5113378230     2.9173285709     0.1777952234
Bq         1.3810542456     2.9615499366     1.0672167547
Bq         1.5258137760     2.9124150858     0.0789706088
Bq         1.4534340108     2.9369825112     0.5730936817
Bq         1.4396701917     3.0417752117     0.6670566915
Bq         1.4686220978     3.0319482415     0.4694074624
Bq         1.4251942387     3.0466886968     0.7658813061
Bq         1.4830980509     3.0270347564     0.3705828478
Bq         1.4107182856     3.0516021819     0.8647059207
Bq         1.4975740039     3.0221212714     0.2717582332
Bq         1.3962423326     3.0565156669     0.9635305353
Bq         1.5120499569     3.0172077863     0.1729336186
Bq         1.3817663795     3.0614291520     1.0623551499
Bq         1.5265259100     3.0122943012     0.0741090040
Bq         1.4541461448     3.0368617266     0.5682320770
Bq         1.4403823257     3.1416544271     0.6621950868
Bq         1.4693342318     3.1318274569     0.4645458576
Bq         1.4259063726     3.1465679121     0.7610197014
Bq         1.4838101848     3.1269139718     0.3657212430
Bq         1.4114304196     3.1514813972     0.8598443159
Bq         1.4982861378     3.1220004867     0.2668966284
Bq         1.3969544665     3.1563948823     0.9586689305
Bq         1.5127620909     3.1170870017     0.1680720139
Bq         1.3824785135     3.1613083674     1.0574935451
Bq         1.5272380439     3.1121735166     0.0692473993
Bq         1.4548582787     3.1367409420     0.5633704722
Bq         1.4410944596     3.2415336424     0.6573334820
Bq         1.4700463657     3.2317066723     0.4596842528
Bq         1.4266185066     3.2464471275     0.7561580966
Bq         1.4845223187     3.2267931872     0.3608596383
Bq         1.4121425535     3.2513606126     0.8549827112
Bq         1.4989982718     3.2218797021     0.2620350237
Bq         1.3976666005     3.2562740977     0.9538073258
Bq         1.5134742248     3.2169662170     0.1632104091
Bq         1.3831906474     3.2611875828     1.0526319404
Bq         1.5279501779     3.2120527319     0.0643857945
Bq         1.4555704127     3.2366201574     0.5585088674
Bq         1.4418065936     3.3414128578     0.6524718772
Bq         1.4707584996     3.3315858877     0.4548226481
Bq         1.4273306405     3.3463263429     0.7512964918
Bq         1.4852344527     3.3266724026     0.3559980335
Bq         1.4128546875     3.3512398280     0.8501211064
Bq         1.4997104057     3.3217589175     0.2571734189
Bq         1.3983787344     3.3561533131     0.9489457210
Bq         1.5141863588     3.3168454324     0.1583488043
Bq         1.3839027814     3.3610667981     1.0477703356
Bq         1.5286623118     3.3119319473     0.0595241897
Bq         1.4562825466     3.3364993727     0.5536472627
Bq         1.4425187275     3.4412920732     0.6476102725
Bq         1.4714706336     3.4314651030     0.4499610433
Bq         1.4280427744     3.4462055583     0.7464348871
Bq         1.4859465866     3.4265516179     0.3511364287
Bq         1.4135668214     3.4511190434     0.8452595017
Bq         1.5004225397     3.4216381329     0.2523118141
Bq         1.3990908684     3.4560325284     0.9440841162
Bq         1.5148984927     3.4167246478     0.1534871996
Bq         1.3846149153     3.4609460135     1.0429087308
Bq         1.5293744458     3.4118111627     0.0546625850
Bq         1.4569946805     3.4363785881     0.5487856579
Bq         1.4432308614     3.5411712886     0.6427486677
Bq         1.4721827675     3.5313443184     0.4450994385
Bq         1.4287549084     3.5460847737     0.7415732823
Bq         1.4866587206     3.5264308333     0.3462748240
Bq         1.4142789553     3.5509982587     0.8403978969
Bq         1.5011346736     3.5215173482     0.2474502094
Bq         1.3998030023     3.5559117438     0.9392225115
Bq         1.5156106267     3.5166038632     0.1486255948
Bq         1.3853270493     3.5608252289     1.0380471261
Bq         1.5300865797     3.5116903781     0.0498009802
Bq         1.4577068145     3.5362578035     0.5439240531
Bq         1.4439429954     3.6410505039     0.6378870629
Bq         1.4728949015     3.6312235338     0.4402378338
Bq         1.4294670423     3.6459639890     0.7367116775
Bq         1.4873708545     3.6263100487     0.3414132192
Bq         1.4149910893     3.6508774741     0.8355362921
Bq         1.5018468076     3.6213965636     0.2425886046
Bq         1.4005151362     3.6557909592     0.9343609067
Bq         1.5163227606     3.6164830785     0.1437639900
Bq         1.3860391832     3.6607044443     1.0331855213
Bq         1.5307987136     3.6115695935     0.0449393754
Bq         1.4584189484     3.6361370189     0.5390624484
Bq         1.4446551293     3.7409297193     0.6330254582
Bq         1.4736070354     3.7311027492     0.4353762290
Bq         1.4301791763     3.7458432044     0.7318500728
Bq         1.4880829885     3.7261892641     0.3365516144
Bq         1.4157032232     3.7507566895     0.8306746874
Bq         1.5025589415     3.7212757790     0.2377269998
Bq         1.4012272702     3.7556701746     0.9294993019
Bq         1.5170348945     3.7163622939     0.1389023853
Bq         1.3867513171     3.7605836597     1.0283239165
Bq         1.5315108476     3.7114488088     0.0400777707
Bq         1.4591310824     3.7360162342     0.5342008436
Bq         1.4453672633     3.8408089347     0.6281638534
Bq         1.4743191693     3.8309819645     0.4305146242
Bq         1.4308913102     3.8457224198     0.7269884680
Bq         1.4887951224     3.8260684795     0.3316900097
Bq         1.4164153572     3.8506359049     0.8258130826
Bq         1.5032710754     3.8211549944     0.2328653951
Bq         1.4019394041     3.8555493900     0.9246376972
Bq         1.5177470285     3.8162415093     0.1340407805
Bq         1.3874634511     3.8604628750     1.0234623118
Bq         1.5322229815     3.8113280242     0.0352161659
Bq         1.4598432163     3.8358954496     0.5293392388
Bq         1.4460793972     3.9406881501     0.6233022486
Bq         1.4750313033     3.9308611799     0.4256530195
Bq         1.4316034442     3.9456016352     0.7221268632
Bq         1.4895072563     3.9259476948     0.3268284049
Bq         1.4171274911     3.9505151202     0.8209514778
Bq         1.5039832094     3.9210342098     0.2280037903
Bq         1.4026515381     3.9554286053     0.9197760924
Bq         1.5184591624     3.9161207247     0.1291791757
Bq         1.3881755850     3.9603420904     1.0186007070
Bq         1.5329351155     3.9112072396     0.0303545611
Bq         1.4605553502     3.9357746650     0.5244776341
Bq         1.4467915311     4.0405673655     0.6184406439
Bq         1.4757434372     4.0307403953     0.4207914147
Bq         1.4323155781     4.0454808505     0.7172652585
Bq         1.4902193903     4.0258269102     0.3219668001
Bq         1.4178396251     4.0503943356     0.8160898731
Bq         1.5046953433     4.0209134251     0.2231421855
Bq         1.4033636720     4.0553078207     0.9149144876
Bq         1.5191712964     4.0159999400     0.1243175710
Bq         1.3888877190     4.0602213058     1.0137391022
Bq         1.5336472494     4.0110864550     0.0254929564
Bq         1.4612674842     4.0356538804     0.5196160293
Bq         1.4475036651     4.1404465808     0.6135790391
Bq         1.4764555712     4.1306196107     0.4159298099
Bq         1.4330277120     4.1453600659     0.7124036537
Bq         1.4909315242     4.1257061256     0.3171051954
Bq         1.4185517590     4.1502735510     0.8112282683
Bq         1.5054074773     4.1207926405     0.2182805808
Bq         1.4040758060     4.1551870361     0.9100528829
Bq         1.5198834303     4.1158791554     0.1194559662
Bq         1.3895998529     4.1601005212     1.0088774975
Bq         1.5343593833     4.1109656703     0.0206313516
Bq         1.4619796181     4.1355330958     0.5147544245
Bq         1.4482157990     4.2403257962     0.6087174343
Bq         1.4771677051     4.2304988260     0.4110682052
Bq         1.4337398460     4.2452392813     0.7075420489
Bq         1.4916436582     4.2255853410     0.3122435906
Bq         1.4192638929     4.2501527664     0.8063666635
Bq         1.5061196112     4.2206718559     0.2134189760
Bq         1.4047879399     4.2550662515     0.9051912781
Bq         1.5205955642     4.2157583708     0.1145943614
Bq         1.3903119868     4.2599797365     1.0040158927
Bq         1.5350715173     4.2108448857     0.0157697468
Bq         1.4626917521     4.2354123111     0.5098928198
Bq         1.4489279330     4.3402050116     0.6038558296
Bq         1.4778798391     4.3303780414     0.4062066004
Bq         1.4344519799     4.3451184967     0.7026804442
Bq         1.4923557921     4.3254645563     0.3073819858
Bq         1.4199760269     4.3500319818     0.8015050588
Bq         1.5068317451     4.3205510713     0.2085573712
Bq         1.4055000738     4.3549454668     0.9003296733
Bq         1.5213076982     4.3156375862     0.1097327567
Bq         1.3910241208     4.3598589519     0.9991542879
Bq         1.5357836512     4.3107241011     0.0109081421
Bq         1.4634038860     4.3352915265     0.5050312150
Bq         1.5122653598    -0.6537557573     0.8614295268
Bq         1.5412172658    -0.6635827274     0.6637802977
Bq         1.4977894067    -0.6488422722     0.9602541414
Bq         1.5556932189    -0.6684962125     0.5649556831
Bq         1.4833134537    -0.6439287871     1.0590787560
Bq         1.5701691719    -0.6734096976     0.4661310685
Bq         1.4688375006    -0.6390153020     1.1579033706
Bq         1.5846451250    -0.6783231827     0.3673064539

1
2
3
4
5
6
7
8
9
10
11
12
13
14
15
16
17
18
19
20
21
22
23
24
25
26
27
28
29
30
31
32
33
34
35
36
37
38
39
40
41
42
43
44
45
46
47
48
49
50
51
52
53
54
55
56
57
58
59
60
61
62
63
64
65
66
67
68
69
70
71
72
73
74
75
76
77
78
79
80
81
82
83
84
85
86
87
88
89
90
91
92
93
94
95
96
97
98
99
100
101
102
103
104
105
106
107
108
109
110
111
112
113
114
115
116
117
118
119
120
121
122
123
124
125
126
127
128
129
130
131
132
133
134
135
136
137
138
139
140
141
142
143
144
145
146
147
148
149
150
151
152
153
154
155
156
157
158
159
160
161
162
163
164
165
166
167
168
169
170
171
172
173
174
175
176
177
178
179
180
181
182
183
184
185
186
187
188
189
190
191
192
193
194
195
196
197
198
199
200
201
202
203
204
205
206
207
208
209
210
211
212
213
214
215
216
217
218
219
220
221
222
223
224
225
226
227
228
229
230
231
232
233
234
235
236

