%nproc=8
%mem=1000MB
# rb3lyp/6-311+g** NMR geom=connectivity

Title

0 1
C    -4.0500558   -0.5771862    0.8136712
H    -5.0263804   -1.0082727    1.0024760
C    -3.9381552    0.6617804    0.2400876
H    -4.8252424    1.2338890   -0.0111295
C    -2.6768410    1.2433246    0.0057578
C    -1.4974121    0.5051527    0.2848253
C    -1.6508332   -0.7338728    0.9404026
H    -0.7713646   -1.2730967    1.2633753
C    -2.8898548   -1.2624035    1.1994307
H    -2.9683706   -2.2124563    1.7152676
C    -2.5773185    2.5963696   -0.4192930
H    -3.4870728    3.1412239   -0.6474055
C    -1.3741895    3.2147896   -0.4364030
H    -1.2997315    4.2742019   -0.6578144
C    -0.1719488    2.4994090   -0.1734588
C    -0.2043917    1.1018437    0.0192689
C     1.0513491    3.2042560   -0.0676222
H     1.0427344    4.2819499   -0.1896997
C     2.1942091    2.5487446    0.2579577
H     3.1168527    3.0912848    0.4334727
C     2.2216473    1.1336562    0.2934990
C     1.0486931    0.3945528    0.0302412
C     3.4483363    0.4614633    0.5573939
H     4.3095794    1.0606054    0.8334846
C     3.5427346   -0.8855926    0.4749463
H     4.4731467   -1.3939704    0.7038822
C     2.4490052   -1.6474447   -0.0196319
C     1.2150704   -1.0057258   -0.3013573
C     0.2531113   -1.7434440   -1.0216591
H    -0.6541356   -1.2535051   -1.3462847
C     0.4494193   -3.0628597   -1.3413779
H    -0.3083162   -3.5944309   -1.9054060
C     1.6251726   -3.7207967   -0.9552541
H     1.7670048   -4.7687404   -1.1927019
C     2.6109872   -3.0144177   -0.3183050
H     3.5525612   -3.4902813   -0.0646367
Bq        -0.9592013352    -0.3541181111     0.4845082397
Bq        -0.9302494291    -0.3639450813     0.2868590105
Bq        -0.9736772883    -0.3492046261     0.5833328543
Bq        -0.9157734761    -0.3688585664     0.1880343959
Bq        -0.9881532413    -0.3442911410     0.6821574688
Bq        -0.9012975230    -0.3737720515     0.0892097813
Bq        -1.0026291943    -0.3393776559     0.7809820834
Bq        -0.8868215700    -0.3786855365    -0.0096148333
Bq        -1.0171051474    -0.3344641708     0.8798066980
Bq        -0.8723456169    -0.3835990216    -0.1084394478
Bq        -0.9447253822    -0.3590315962     0.3856836251
Bq        -0.9584892013    -0.2542388958     0.4796466349
Bq        -0.9295372952    -0.2640658659     0.2819974057
Bq        -0.9729651543    -0.2493254107     0.5784712495
Bq        -0.9150613421    -0.2689793510     0.1831727912
Bq        -0.9874411074    -0.2444119256     0.6772958641
Bq        -0.9005853891    -0.2738928361     0.0843481766
Bq        -1.0019170604    -0.2394984405     0.7761204787
Bq        -0.8861094360    -0.2788063212    -0.0144764380
Bq        -1.0163930134    -0.2345849554     0.8749450932
Bq        -0.8716334830    -0.2837198063    -0.1133010526
Bq        -0.9440132482    -0.2591523808     0.3808220203
Bq        -0.9577770673    -0.1543596804     0.4747850301
Bq        -0.9288251612    -0.1641866505     0.2771358010
Bq        -0.9722530204    -0.1494461953     0.5736096447
Bq        -0.9143492082    -0.1691001356     0.1783111864
Bq        -0.9867289734    -0.1445327102     0.6724342593
Bq        -0.8998732551    -0.1740136207     0.0794865718
Bq        -1.0012049265    -0.1396192251     0.7712588739
Bq        -0.8853973021    -0.1789271058    -0.0193380428
Bq        -1.0156808795    -0.1347057400     0.8700834885
Bq        -0.8709213491    -0.1838405909    -0.1181626574
Bq        -0.9433011143    -0.1592731655     0.3759604156
Bq        -0.9570649334    -0.0544804650     0.4699234254
Bq        -0.9281130273    -0.0643074352     0.2722741962
Bq        -0.9715408864    -0.0495669799     0.5687480400
Bq        -0.9136370743    -0.0692209203     0.1734495816
Bq        -0.9860168395    -0.0446534948     0.6675726545
Bq        -0.8991611212    -0.0741344053     0.0746249670
Bq        -1.0004927925    -0.0397400098     0.7663972691
Bq        -0.8846851682    -0.0790478904    -0.0241996476
Bq        -1.0149687456    -0.0348265247     0.8652218837
Bq        -0.8702092151    -0.0839613755    -0.1230242621
Bq        -0.9425889803    -0.0593939501     0.3710988108
Bq        -0.9563527994     0.0453987504     0.4650618206
Bq        -0.9274008934     0.0355717802     0.2674125914
Bq        -0.9708287525     0.0503122355     0.5638864352
Bq        -0.9129249403     0.0306582951     0.1685879769
Bq        -0.9853047055     0.0552257205     0.6627110498
Bq        -0.8984489873     0.0257448100     0.0697633623
Bq        -0.9997806586     0.0601392056     0.7615356644
Bq        -0.8839730342     0.0208313250    -0.0290612523
Bq        -1.0142566116     0.0650526907     0.8603602789
Bq        -0.8694970812     0.0159178399    -0.1278858669
Bq        -0.9418768464     0.0404852653     0.3662372060
Bq        -0.9556406655     0.1452779658     0.4602002158
Bq        -0.9266887594     0.1354509956     0.2625509867
Bq        -0.9701166185     0.1501914508     0.5590248304
Bq        -0.9122128064     0.1305375105     0.1637263721
Bq        -0.9845925716     0.1551049359     0.6578494450
Bq        -0.8977368533     0.1256240254     0.0649017575
Bq        -0.9990685246     0.1600184210     0.7566740596
Bq        -0.8832609003     0.1207105403    -0.0339228571
Bq        -1.0135444777     0.1649319061     0.8554986742
Bq        -0.8687849472     0.1157970553    -0.1327474717
Bq        -0.9411647125     0.1403644807     0.3613756013
Bq        -0.9549285316     0.2451571811     0.4553386111
Bq        -0.9259766255     0.2353302110     0.2576893819
Bq        -0.9694044846     0.2500706662     0.5541632257
Bq        -0.9115006724     0.2304167259     0.1588647673
Bq        -0.9838804376     0.2549841513     0.6529878402
Bq        -0.8970247194     0.2255032408     0.0600401527
Bq        -0.9983563907     0.2598976364     0.7518124548
Bq        -0.8825487663     0.2205897557    -0.0387844619
Bq        -1.0128323437     0.2648111215     0.8506370694
Bq        -0.8680728133     0.2156762706    -0.1376090764
Bq        -0.9404525785     0.2402436960     0.3565139965
Bq        -0.9542163976     0.3450363965     0.4504770063
Bq        -0.9252644915     0.3352094263     0.2528277771
Bq        -0.9686923507     0.3499498816     0.5493016209
Bq        -0.9107885385     0.3302959413     0.1540031626
Bq        -0.9831683037     0.3548633667     0.6481262355
Bq        -0.8963125854     0.3253824562     0.0551785480
Bq        -0.9976442567     0.3597768518     0.7469508501
Bq        -0.8818366324     0.3204689711    -0.0436460666
Bq        -1.0121202098     0.3646903368     0.8457754646
Bq        -0.8673606794     0.3155554860    -0.1424706812
Bq        -0.9397404446     0.3401229114     0.3516523917
Bq        -0.9535042637     0.4449156119     0.4456154015
Bq        -0.9245523576     0.4350886417     0.2479661724
Bq        -0.9679802167     0.4498290970     0.5444400161
Bq        -0.9100764045     0.4301751566     0.1491415578
Bq        -0.9824561698     0.4547425820     0.6432646307
Bq        -0.8956004515     0.4252616716     0.0503169432
Bq        -0.9969321228     0.4596560671     0.7420892453
Bq        -0.8811244985     0.4203481865    -0.0485076714
Bq        -1.0114080759     0.4645695522     0.8409138599
Bq        -0.8666485454     0.4154347014    -0.1473322860
Bq        -0.9390283106     0.4400021268     0.3467907870
Bq        -0.9527921297     0.5447948273     0.4407537968
Bq        -0.9238402236     0.5349678571     0.2431045676
Bq        -0.9672680828     0.5497083123     0.5395784114
Bq        -0.9093642706     0.5300543720     0.1442799530
Bq        -0.9817440358     0.5546217974     0.6384030259
Bq        -0.8948883176     0.5251408869     0.0454553384
Bq        -0.9962199889     0.5595352825     0.7372276405
Bq        -0.8804123645     0.5202274018    -0.0533692761
Bq        -1.0106959419     0.5644487676     0.8360522551
Bq        -0.8659364115     0.5153139168    -0.1521938907
Bq        -0.9383161767     0.5398813422     0.3419291822
Bq        -0.9520799958     0.6446740426     0.4358921920
Bq        -0.9231280897     0.6348470725     0.2382429628
Bq        -0.9665559488     0.6495875277     0.5347168066
Bq        -0.9086521367     0.6299335874     0.1394183483
Bq        -0.9810319019     0.6545010128     0.6335414212
Bq        -0.8941761836     0.6250201023     0.0405937337
Bq        -0.9955078549     0.6594144979     0.7323660358
Bq        -0.8797002306     0.6201066172    -0.0582308809
Bq        -1.0099838080     0.6643279830     0.8311906503
Bq        -0.8652242775     0.6151931321    -0.1570554955
Bq        -0.9376040427     0.6397605576     0.3370675774
Bq        -0.9513678619     0.7445532580     0.4310305872
Bq        -0.9224159558     0.7347262878     0.2333813581
Bq        -0.9658438149     0.7494667431     0.5298552018
Bq        -0.9079400027     0.7298128028     0.1345567435
Bq        -0.9803197679     0.7543802282     0.6286798164
Bq        -0.8934640497     0.7248993177     0.0357321289
Bq        -0.9947957210     0.7592937133     0.7275044310
Bq        -0.8789880966     0.7199858326    -0.0630924857
Bq        -1.0092716740     0.7642071983     0.8263290456
Bq        -0.8645121436     0.7150723475    -0.1619171003
Bq        -0.9368919088     0.7396397729     0.3322059727
Bq        -0.9506557279     0.8444324734     0.4261689825
Bq        -0.9217038218     0.8346055032     0.2285197533
Bq        -0.9651316810     0.8493459585     0.5249935971
Bq        -0.9072278688     0.8296920181     0.1296951387
Bq        -0.9796076340     0.8542594436     0.6238182116
Bq        -0.8927519157     0.8247785331     0.0308705241
Bq        -0.9940835870     0.8591729286     0.7226428262
Bq        -0.8782759627     0.8198650480    -0.0679540904
Bq        -1.0085595401     0.8640864137     0.8214674408
Bq        -0.8638000096     0.8149515629    -0.1667787050
Bq        -0.9361797749     0.8395189883     0.3273443679
Bq        -0.9499435940     0.9443116888     0.4213073777
Bq        -0.9209916879     0.9344847186     0.2236581485
Bq        -0.9644195470     0.9492251739     0.5201319923
Bq        -0.9065157348     0.9295712335     0.1248335340
Bq        -0.9788955001     0.9541386589     0.6189566069
Bq        -0.8920397818     0.9246577484     0.0260089194
Bq        -0.9933714531     0.9590521440     0.7177812215
Bq        -0.8775638287     0.9197442634    -0.0728156952
Bq        -1.0078474061     0.9639656291     0.8166058360
Bq        -0.8630878757     0.9148307783    -0.1716403098
Bq        -0.9354676409     0.9393982037     0.3224827631
Bq        -0.9492314600     1.0441909041     0.4164457729
Bq        -0.9202795539     1.0343639340     0.2187965438
Bq        -0.9637074131     1.0491043892     0.5152703875
Bq        -0.9058036009     1.0294504489     0.1199719292
Bq        -0.9781833661     1.0540178743     0.6140950021
Bq        -0.8913276478     1.0245369638     0.0211473146
Bq        -0.9926593192     1.0589313594     0.7129196167
Bq        -0.8768516948     1.0196234787    -0.0776773000
Bq        -1.0071352722     1.0638448445     0.8117442313
Bq        -0.8623757418     1.0147099936    -0.1765019146
Bq        -0.9347555070     1.0392774191     0.3176211584
Bq        -0.9485193261     1.1440701195     0.4115841682
Bq        -0.9195674200     1.1342431494     0.2139349390
Bq        -0.9629952791     1.1489836046     0.5104087828
Bq        -0.9050914670     1.1293296643     0.1151103244
Bq        -0.9774712322     1.1538970897     0.6092333973
Bq        -0.8906155139     1.1244161792     0.0162857098
Bq        -0.9919471852     1.1588105748     0.7080580119
Bq        -0.8761395609     1.1195026941    -0.0825389047
Bq        -1.0064231383     1.1637240599     0.8068826265
Bq        -0.8616636078     1.1145892090    -0.1813635193
Bq        -0.9340433730     1.1391566344     0.3127595536
Bq        -0.9478071921     1.2439493349     0.4067225634
Bq        -0.9188552861     1.2341223647     0.2090733342
Bq        -0.9622831452     1.2488628200     0.5055471780
Bq        -0.9043793330     1.2292088797     0.1102487197
Bq        -0.9767590982     1.2537763051     0.6043717926
Bq        -0.8899033800     1.2242953946     0.0114241051
Bq        -0.9912350513     1.2586897901     0.7031964072
Bq        -0.8754274269     1.2193819095    -0.0874005095
Bq        -1.0057110043     1.2636032752     0.8020210217
Bq        -0.8609514739     1.2144684244    -0.1862251241
Bq        -0.9333312391     1.2390358498     0.3078979488
Bq        -0.9470950582     1.3438285503     0.4018609586
Bq        -0.9181431521     1.3340015801     0.2042117295
Bq        -0.9615710112     1.3487420354     0.5006855732
Bq        -0.9036671991     1.3290880950     0.1053871149
Bq        -0.9760469643     1.3536555204     0.5995101878
Bq        -0.8891912460     1.3241746099     0.0065625003
Bq        -0.9905229173     1.3585690055     0.6983348024
Bq        -0.8747152930     1.3192611249    -0.0922621143
Bq        -1.0049988704     1.3634824906     0.7971594170
Bq        -0.8602393399     1.3143476398    -0.1910867289
Bq        -0.9326191052     1.3389150652     0.3030363441
Bq        -0.9463829243     1.4437077657     0.3969993539
Bq        -0.9174310182     1.4338807955     0.1993501247

1
2
3
4
5
6
7
8
9
10
11
12
13
14
15
16
17
18
19
20
21
22
23
24
25
26
27
28
29
30
31
32
33
34
35
36
37
38
39
40
41
42
43
44
45
46
47
48
49
50
51
52
53
54
55
56
57
58
59
60
61
62
63
64
65
66
67
68
69
70
71
72
73
74
75
76
77
78
79
80
81
82
83
84
85
86
87
88
89
90
91
92
93
94
95
96
97
98
99
100
101
102
103
104
105
106
107
108
109
110
111
112
113
114
115
116
117
118
119
120
121
122
123
124
125
126
127
128
129
130
131
132
133
134
135
136
137
138
139
140
141
142
143
144
145
146
147
148
149
150
151
152
153
154
155
156
157
158
159
160
161
162
163
164
165
166
167
168
169
170
171
172
173
174
175
176
177
178
179
180
181
182
183
184
185
186
187
188
189
190
191
192
193
194
195
196
197
198
199
200
201
202
203
204
205
206
207
208
209
210
211
212
213
214
215
216
217
218
219
220
221
222
223
224
225
226
227
228
229
230
231
232
233
234
235
236

