%nproc=8
%mem=1000MB
# rb3lyp/6-311+g** NMR geom=connectivity

Title

0 1
C    -4.0500558   -0.5771862    0.8136712
H    -5.0263804   -1.0082727    1.0024760
C    -3.9381552    0.6617804    0.2400876
H    -4.8252424    1.2338890   -0.0111295
C    -2.6768410    1.2433246    0.0057578
C    -1.4974121    0.5051527    0.2848253
C    -1.6508332   -0.7338728    0.9404026
H    -0.7713646   -1.2730967    1.2633753
C    -2.8898548   -1.2624035    1.1994307
H    -2.9683706   -2.2124563    1.7152676
C    -2.5773185    2.5963696   -0.4192930
H    -3.4870728    3.1412239   -0.6474055
C    -1.3741895    3.2147896   -0.4364030
H    -1.2997315    4.2742019   -0.6578144
C    -0.1719488    2.4994090   -0.1734588
C    -0.2043917    1.1018437    0.0192689
C     1.0513491    3.2042560   -0.0676222
H     1.0427344    4.2819499   -0.1896997
C     2.1942091    2.5487446    0.2579577
H     3.1168527    3.0912848    0.4334727
C     2.2216473    1.1336562    0.2934990
C     1.0486931    0.3945528    0.0302412
C     3.4483363    0.4614633    0.5573939
H     4.3095794    1.0606054    0.8334846
C     3.5427346   -0.8855926    0.4749463
H     4.4731467   -1.3939704    0.7038822
C     2.4490052   -1.6474447   -0.0196319
C     1.2150704   -1.0057258   -0.3013573
C     0.2531113   -1.7434440   -1.0216591
H    -0.6541356   -1.2535051   -1.3462847
C     0.4494193   -3.0628597   -1.3413779
H    -0.3083162   -3.5944309   -1.9054060
C     1.6251726   -3.7207967   -0.9552541
H     1.7670048   -4.7687404   -1.1927019
C     2.6109872   -3.0144177   -0.3183050
H     3.5525612   -3.4902813   -0.0646367
Bq         1.8661775822    -0.9465023438     0.0811396450
Bq         1.5074217081    -1.1860432037     0.8710221674
Bq         1.9060393459    -0.9198866927    -0.0066250797
Bq         1.7067305270    -1.0529649482     0.4321985438
Bq         1.6558622898    -0.9831876166     0.5441965190
Bq         1.7355858174    -0.9299563144     0.3686670696
Bq         1.6160005261    -1.0098032677     0.6319612437
Bq         1.7754475812    -0.9033406633     0.2809023449
Bq         1.5761387623    -1.0364189188     0.7197259684
Bq         1.8153093450    -0.8767250122     0.1931376202
Bq         1.5362769985    -1.0630345699     0.8074906931
Bq         1.8551711088    -0.8501093610     0.1053728954
Bq         1.4964152347    -1.0896502210     0.8952554179
Bq         1.8950328726    -0.8234937099     0.0176081707
Bq         1.6957240536    -0.9565719655     0.4564317943
Bq         1.6448558165    -0.8867946339     0.5684297695
Bq         1.7245793441    -0.8335633317     0.3929003200
Bq         1.6049940527    -0.9134102850     0.6561944942
Bq         1.7644411078    -0.8069476805     0.3051355953
Bq         1.5651322889    -0.9400259361     0.7439592189
Bq         1.8043028716    -0.7803320294     0.2173708706
Bq         1.5252705251    -0.9666415872     0.8317239436
Bq         1.8441646354    -0.7537163783     0.1296061459
Bq         1.4854087613    -0.9932572383     0.9194886683
Bq         1.8840263992    -0.7271007272     0.0418414212
Bq         1.6847175803    -0.8601789828     0.4806650447
Bq         1.6338493431    -0.7904016512     0.5926630199
Bq         1.7135728707    -0.7371703489     0.4171335705
Bq         1.5939875793    -0.8170173023     0.6804277446
Bq         1.7534346345    -0.7105546978     0.3293688458
Bq         1.5541258155    -0.8436329534     0.7681924693
Bq         1.7932963983    -0.6839390467     0.2416041211
Bq         1.5142640517    -0.8702486045     0.8559571941
Bq         1.8331581620    -0.6573233956     0.1538393964
Bq         1.4744022880    -0.8968642556     0.9437219188
Bq         1.8730199258    -0.6307077445     0.0660746716
Bq         1.6737111069    -0.7637860000     0.5048982952
Bq         1.6228428697    -0.6940086684     0.6168962704
Bq         1.7025663973    -0.6407773662     0.4413668210
Bq         1.5829811059    -0.7206243196     0.7046609951
Bq         1.7424281611    -0.6141617151     0.3536020962
Bq         1.5431193422    -0.7472399707     0.7924257198
Bq         1.7822899249    -0.5875460640     0.2658373715
Bq         1.5032575784    -0.7738556218     0.8801904445
Bq         1.8221516887    -0.5609304129     0.1780726468
Bq         1.4633958146    -0.8004712729     0.9679551692
Bq         1.8620134525    -0.5343147618     0.0903079221
Bq         1.6627046335    -0.6673930173     0.5291315457
Bq         1.6118363964    -0.5976156857     0.6411295208
Bq         1.6915599239    -0.5443843835     0.4656000714
Bq         1.5719746326    -0.6242313368     0.7288942455
Bq         1.7314216877    -0.5177687324     0.3778353467
Bq         1.5321128688    -0.6508469879     0.8166589703
Bq         1.7712834515    -0.4911530813     0.2900706220
Bq         1.4922511050    -0.6774626391     0.9044236950
Bq         1.8111452153    -0.4645374302     0.2023058973
Bq         1.4523893412    -0.7040782902     0.9921884197
Bq         1.8510069791    -0.4379217791     0.1145411726
Bq         1.6516981601    -0.5710000346     0.5533647961
Bq         1.6008299230    -0.5012227030     0.6653627713
Bq         1.6805534506    -0.4479914008     0.4898333219
Bq         1.5609681592    -0.5278383541     0.7531274960
Bq         1.7204152144    -0.4213757497     0.4020685972
Bq         1.5211063954    -0.5544540052     0.8408922207
Bq         1.7602769781    -0.3947600986     0.3143038724
Bq         1.4812446316    -0.5810696563     0.9286569454
Bq         1.8001387419    -0.3681444475     0.2265391477
Bq         1.4413828678    -0.6076853074     1.0164216701
Bq         1.8400005057    -0.3415287964     0.1387744230
Bq         1.6406916868    -0.4746070519     0.5775980466
Bq         1.5898234496    -0.4048297203     0.6895960218
Bq         1.6695469772    -0.3515984181     0.5140665723
Bq         1.5499616858    -0.4314453714     0.7773607465
Bq         1.7094087410    -0.3249827670     0.4263018476
Bq         1.5100999220    -0.4580610225     0.8651254712
Bq         1.7492705048    -0.2983671159     0.3385371229
Bq         1.4702381583    -0.4846766736     0.9528901959
Bq         1.7891322686    -0.2717514648     0.2507723982
Bq         1.4303763945    -0.5112923247     1.0406549206
Bq         1.8289940323    -0.2451358137     0.1630076735
Bq         1.6296852134    -0.3782140692     0.6018312970
Bq         1.5788169762    -0.3084367376     0.7138292722
Bq         1.6585405038    -0.2552054354     0.5382998228
Bq         1.5389552125    -0.3350523887     0.8015939969
Bq         1.6984022676    -0.2285897843     0.4505350981
Bq         1.4990934487    -0.3616680398     0.8893587216
Bq         1.7382640314    -0.2019741332     0.3627703734
Bq         1.4592316849    -0.3882836909     0.9771234463
Bq         1.7781257952    -0.1753584821     0.2750056486
Bq         1.4193699211    -0.4148993420     1.0648881711
Bq         1.8179875590    -0.1487428310     0.1872409239
Bq         1.6186787400    -0.2818210865     0.6260645475
Bq         1.5678105029    -0.2120437549     0.7380625227
Bq         1.6475340304    -0.1588124527     0.5625330732
Bq         1.5279487391    -0.2386594060     0.8258272474
Bq         1.6873957942    -0.1321968016     0.4747683485
Bq         1.4880869753    -0.2652750571     0.9135919721
Bq         1.7272575580    -0.1055811505     0.3870036238
Bq         1.4482252115    -0.2918907082     1.0013566968
Bq         1.7671193218    -0.0789654993     0.2992388991
Bq         1.4083634477    -0.3185063593     1.0891214215
Bq         1.8069810856    -0.0523498482     0.2114741744
Bq         1.6076722667    -0.1854281038     0.6502977980
Bq         1.5568040295    -0.1156507722     0.7622957731
Bq         1.6365275571    -0.0624194700     0.5867663237
Bq         1.5169422657    -0.1422664233     0.8500604978
Bq         1.6763893209    -0.0358038189     0.4990015990
Bq         1.4770805019    -0.1688820744     0.9378252226
Bq         1.7162510847    -0.0091881677     0.4112368743
Bq         1.4372187381    -0.1954977255     1.0255899473
Bq         1.7561128484     0.0174274834     0.3234721496
Bq         1.3973569744    -0.2221133766     1.1133546720
Bq         1.7959746122     0.0440431345     0.2357074248
Bq         1.5966657933    -0.0890351211     0.6745310484
Bq         2.1981765714    -4.9352999078    -0.4080133621
Bq         2.2779000990    -4.8820686056    -0.5835428116
Bq         2.1583148076    -4.9619155589    -0.3202486374
Bq         2.3177618628    -4.8554529545    -0.6713075363
Bq         2.1184530438    -4.9885312100    -0.2324839127
Bq         2.3576236266    -4.8288373034    -0.7590722610
Bq         2.0785912801    -5.0151468611    -0.1447191880
Bq         2.3974853904    -4.8022216522    -0.8468369857
Bq         2.0387295163    -5.0417625122    -0.0569544633
Bq         2.4373471541    -4.7756060011    -0.9346017104
Bq         2.2380383352    -4.9086842567    -0.4957780869
Bq         2.1871700980    -4.8389069251    -0.3837801117
Bq         2.2668936256    -4.7856756229    -0.5593095611
Bq         2.1473083343    -4.8655225762    -0.2960153870
Bq         2.3067553894    -4.7590599717    -0.6470742858
Bq         2.1074465705    -4.8921382273    -0.2082506623
Bq         2.3466171532    -4.7324443206    -0.7348390105
Bq         2.0675848067    -4.9187538784    -0.1204859376
Bq         2.3864789170    -4.7058286695    -0.8226037353
Bq         2.0277230429    -4.9453695295    -0.0327212128
Bq         2.4263406808    -4.6792130184    -0.9103684600
Bq         2.2270318618    -4.8122912740    -0.4715448364
Bq         2.1761636247    -4.7425139424    -0.3595468612
Bq         2.2558871522    -4.6892826401    -0.5350763107
Bq         2.1363018609    -4.7691295935    -0.2717821365
Bq         2.2957489160    -4.6626669890    -0.6228410354
Bq         2.0964400971    -4.7957452446    -0.1840174118
Bq         2.3356106798    -4.6360513379    -0.7106057601
Bq         2.0565783333    -4.8223608957    -0.0962526871
Bq         2.3754724436    -4.6094356868    -0.7983704848
Bq         2.0167165695    -4.8489765468    -0.0084879624
Bq         2.4153342074    -4.5828200357    -0.8861352095
Bq         2.2160253885    -4.7158982912    -0.4473115859
Bq         2.1651571513    -4.6461209596    -0.3353136108
Bq         2.2448806789    -4.5928896574    -0.5108430602
Bq         2.1252953875    -4.6727366108    -0.2475488861
Bq         2.2847424427    -4.5662740063    -0.5986077849
Bq         2.0854336237    -4.6993522619    -0.1597841613
Bq         2.3246042065    -4.5396583552    -0.6863725096
Bq         2.0455718599    -4.7259679130    -0.0720194366
Bq         2.3644659702    -4.5130427041    -0.7741372343
Bq         2.0057100962    -4.7525835641     0.0157452881
Bq         2.4043277340    -4.4864270530    -0.8619019590
Bq         2.2050189151    -4.6195053085    -0.4230783355
Bq         2.1541506779    -4.5497279769    -0.3110803603
Bq         2.2338742055    -4.4964966747    -0.4866098097
Bq         2.1142889141    -4.5763436280    -0.2233156356
Bq         2.2737359693    -4.4698810236    -0.5743745345
Bq         2.0744271504    -4.6029592791    -0.1355509109
Bq         2.3135977331    -4.4432653725    -0.6621392592
Bq         2.0345653866    -4.6295749303    -0.0477861862
Bq         2.3534594969    -4.4166497214    -0.7499039839
Bq         1.9947036228    -4.6561905814     0.0399785385
Bq         2.3933212607    -4.3900340703    -0.8376687086
Bq         2.1940124417    -4.5231123258    -0.3988450850
Bq         2.1431442046    -4.4533349942    -0.2868471099
Bq         2.2228677321    -4.4001036920    -0.4623765593
Bq         2.1032824408    -4.4799506453    -0.1990823851
Bq         2.2627294959    -4.3734880409    -0.5501412840
Bq         2.0634206770    -4.5065662964    -0.1113176604
Bq         2.3025912597    -4.3468723898    -0.6379060087
Bq         2.0235589132    -4.5331819475    -0.0235529357
Bq         2.3424530235    -4.3202567387    -0.7256707334
Bq         1.9836971494    -4.5597975986     0.0642117890
Bq         2.3823147873    -4.2936410876    -0.8134354581
Bq         2.1830059683    -4.4267193431    -0.3746118346
Bq         2.1321377312    -4.3569420115    -0.2626138594
Bq         2.2118612588    -4.3037107093    -0.4381433088
Bq         2.0922759674    -4.3835576626    -0.1748491347
Bq         2.2517230225    -4.2770950582    -0.5259080335
Bq         2.0524142036    -4.4101733137    -0.0870844100
Bq         2.2915847863    -4.2504794071    -0.6136727582
Bq         2.0125524398    -4.4367889648     0.0006803147
Bq         2.3314465501    -4.2238637560    -0.7014374830
Bq         1.9726906760    -4.4634046159     0.0884450395
Bq         2.3713083139    -4.1972481049    -0.7892022077
Bq         2.1719994950    -4.3303263604    -0.3503785841
Bq         2.1211312578    -4.2605490288    -0.2383806089
Bq         2.2008547854    -4.2073177266    -0.4139100584
Bq         2.0812694940    -4.2871646799    -0.1506158842
Bq         2.2407165492    -4.1807020755    -0.5016747831
Bq         2.0414077302    -4.3137803310    -0.0628511595
Bq         2.2805783130    -4.1540864244    -0.5894395078
Bq         2.0015459665    -4.3403959821     0.0249135652
Bq         2.3204400768    -4.1274707733    -0.6772042325
Bq         1.9616842027    -4.3670116332     0.1126782899

1
2
3
4
5
6
7
8
9
10
11
12
13
14
15
16
17
18
19
20
21
22
23
24
25
26
27
28
29
30
31
32
33
34
35
36
37
38
39
40
41
42
43
44
45
46
47
48
49
50
51
52
53
54
55
56
57
58
59
60
61
62
63
64
65
66
67
68
69
70
71
72
73
74
75
76
77
78
79
80
81
82
83
84
85
86
87
88
89
90
91
92
93
94
95
96
97
98
99
100
101
102
103
104
105
106
107
108
109
110
111
112
113
114
115
116
117
118
119
120
121
122
123
124
125
126
127
128
129
130
131
132
133
134
135
136
137
138
139
140
141
142
143
144
145
146
147
148
149
150
151
152
153
154
155
156
157
158
159
160
161
162
163
164
165
166
167
168
169
170
171
172
173
174
175
176
177
178
179
180
181
182
183
184
185
186
187
188
189
190
191
192
193
194
195
196
197
198
199
200
201
202
203
204
205
206
207
208
209
210
211
212
213
214
215
216
217
218
219
220
221
222
223
224
225
226
227
228
229
230
231
232
233
234
235
236

