%nproc=8
%mem=1000MB
# rb3lyp/6-311+g** NMR geom=connectivity

Title

0 1
C    -4.0500558   -0.5771862    0.8136712
H    -5.0263804   -1.0082727    1.0024760
C    -3.9381552    0.6617804    0.2400876
H    -4.8252424    1.2338890   -0.0111295
C    -2.6768410    1.2433246    0.0057578
C    -1.4974121    0.5051527    0.2848253
C    -1.6508332   -0.7338728    0.9404026
H    -0.7713646   -1.2730967    1.2633753
C    -2.8898548   -1.2624035    1.1994307
H    -2.9683706   -2.2124563    1.7152676
C    -2.5773185    2.5963696   -0.4192930
H    -3.4870728    3.1412239   -0.6474055
C    -1.3741895    3.2147896   -0.4364030
H    -1.2997315    4.2742019   -0.6578144
C    -0.1719488    2.4994090   -0.1734588
C    -0.2043917    1.1018437    0.0192689
C     1.0513491    3.2042560   -0.0676222
H     1.0427344    4.2819499   -0.1896997
C     2.1942091    2.5487446    0.2579577
H     3.1168527    3.0912848    0.4334727
C     2.2216473    1.1336562    0.2934990
C     1.0486931    0.3945528    0.0302412
C     3.4483363    0.4614633    0.5573939
H     4.3095794    1.0606054    0.8334846
C     3.5427346   -0.8855926    0.4749463
H     4.4731467   -1.3939704    0.7038822
C     2.4490052   -1.6474447   -0.0196319
C     1.2150704   -1.0057258   -0.3013573
C     0.2531113   -1.7434440   -1.0216591
H    -0.6541356   -1.2535051   -1.3462847
C     0.4494193   -3.0628597   -1.3413779
H    -0.3083162   -3.5944309   -1.9054060
C     1.6251726   -3.7207967   -0.9552541
H     1.7670048   -4.7687404   -1.1927019
C     2.6109872   -3.0144177   -0.3183050
H     3.5525612   -3.4902813   -0.0646367
Bq        -2.7284944454     1.8368563202     0.1437148035
Bq        -2.7477043520     1.9596029071     0.6280331439
Bq        -2.7246524640     1.8123070028     0.0468511354
Bq        -2.7515463333     1.9841522244     0.7248968120
Bq        -2.7208104827     1.7877576854    -0.0500125327
Bq        -2.7553883147     2.0087015418     0.8217604801
Bq        -2.7169685014     1.7632083681    -0.1468762008
Bq        -2.7361784080     1.8859549549     0.3374421396
Bq        -2.7390474351     2.0074441043     0.4097757783
Bq        -2.7313634725     1.9583454695     0.2160484421
Bq        -2.7428894165     2.0319934216     0.5066394464
Bq        -2.7275214911     1.9337961521     0.1191847740
Bq        -2.7467313978     2.0565427390     0.6035031145
Bq        -2.7236795098     1.9092468348     0.0223211059
Bq        -2.7505733791     2.0810920564     0.7003667826
Bq        -2.7198375285     1.8846975174    -0.0745425621
Bq        -2.7544153605     2.1056413738     0.7972304507
Bq        -2.7159955472     1.8601482000    -0.1714062302
Bq        -2.7352054538     1.9828947869     0.3129121102
Bq        -2.7380744809     2.1043839362     0.3852457489
Bq        -2.7303905183     2.0552853014     0.1915184127
Bq        -2.7419164622     2.1289332536     0.4821094170
Bq        -2.7265485369     2.0307359841     0.0946547446
Bq        -2.7457584436     2.1534825709     0.5789730851
Bq        -2.7227065556     2.0061866667    -0.0022089235
Bq        -2.7496004249     2.1780318883     0.6758367531
Bq        -2.7188645743     1.9816373493    -0.0990725916
Bq        -2.7534424062     2.2025812057     0.7727004212
Bq        -2.7150225929     1.9570880319    -0.1959362597
Bq        -2.7342324996     2.0798346188     0.2883820808
Bq        -2.7371015267     2.2013237681     0.3607157195
Bq        -2.7294175640     2.1522251334     0.1669883833
Bq        -2.7409435080     2.2258730855     0.4575793875
Bq        -2.7255755827     2.1276758160     0.0701247152
Bq        -2.7447854893     2.2504224029     0.5544430556
Bq        -2.7217336014     2.1031264986    -0.0267389529
Bq        -2.7486274707     2.2749717203     0.6513067237
Bq        -2.7178916200     2.0785771813    -0.1236026210
Bq        -2.7524694520     2.2995210376     0.7481703918
Bq        -2.7140496387     2.0540278639    -0.2204662891
Bq        -2.7332595454     2.1767744508     0.2638520514
Bq        -2.7361285725     2.2982636001     0.3361856900
Bq        -2.7284446098     2.2491649653     0.1424583538
Bq        -2.7399705538     2.3228129174     0.4330493581
Bq        -2.7246026285     2.2246156479     0.0455946858
Bq        -2.7438125351     2.3473622348     0.5299130262
Bq        -2.7207606471     2.2000663306    -0.0512689823
Bq        -2.7476545165     2.3719115522     0.6267766943
Bq        -2.7169186658     2.1755170132    -0.1481326504
Bq        -2.7514964978     2.3964608696     0.7236403624
Bq        -2.7130766845     2.1509676958    -0.2449963185
Bq        -2.7322865911     2.2737142827     0.2393220219
Bq        -2.7351556182     2.3952034320     0.3116556606
Bq        -2.7274716556     2.3461047973     0.1179283244
Bq        -2.7389975996     2.4197527494     0.4085193287
Bq        -2.7236296743     2.3215554799     0.0210646563
Bq        -2.7428395809     2.4443020668     0.5053829968
Bq        -2.7197876929     2.2970061625    -0.0757990118
Bq        -2.7466815622     2.4688513841     0.6022466649
Bq        -2.7159457116     2.2724568451    -0.1726626799
Bq        -2.7505235436     2.4934007015     0.6991103330
Bq        -2.7121037303     2.2479075278    -0.2695263479
Bq        -2.7313136369     2.3706541146     0.2147919925
Bq        -2.7341826640     2.4921432640     0.2871256312
Bq        -2.7264987014     2.4430446292     0.0933982950
Bq        -2.7380246453     2.5166925813     0.3839892993
Bq        -2.7226567200     2.4184953118    -0.0034653731
Bq        -2.7418666267     2.5412418987     0.4808529674
Bq        -2.7188147387     2.3939459944    -0.1003290412
Bq        -2.7457086080     2.5657912161     0.5777166354
Bq        -2.7149727574     2.3693966771    -0.1971927093
Bq        -2.7495505893     2.5903405335     0.6745803035
Bq        -2.7111307760     2.3448473597    -0.2940563774
Bq        -2.7303406827     2.4675939466     0.1902619631
Bq        -2.7332097098     2.5890830959     0.2625956017
Bq        -2.7255257471     2.5399844611     0.0688682656
Bq        -2.7370516911     2.6136324133     0.3594592698
Bq        -2.7216837658     2.5154351438    -0.0279954025
Bq        -2.7408936724     2.6381817306     0.4563229379
Bq        -2.7178417845     2.4908858264    -0.1248590706
Bq        -2.7447356538     2.6627310480     0.5531866060
Bq        -2.7139998031     2.4663365090    -0.2217227387
Bq        -2.7485776351     2.6872803654     0.6500502741
Bq        -2.7101578218     2.4417871916    -0.3185864068
Bq        -2.7293677285     2.5645337785     0.1657319337
Bq        -2.7322367556     2.6860229278     0.2380655723
Bq        -2.7245527929     2.6369242931     0.0443382361
Bq        -2.7360787369     2.7105722452     0.3349292404
Bq        -2.7207108116     2.6123749757    -0.0525254320
Bq        -2.7399207182     2.7351215626     0.4317929085
Bq        -2.7168688302     2.5878256583    -0.1493891000
Bq        -2.7437626996     2.7596708800     0.5286565766
Bq        -2.7130268489     2.5632763409    -0.2462527681
Bq        -2.7476046809     2.7842201973     0.6255202447
Bq        -2.7091848676     2.5387270236    -0.3431164362
Bq        -2.7283947742     2.6614736105     0.1412019042
Bq        -2.7312638013     2.7829627598     0.2135355429
Bq        -2.7235798387     2.7338641250     0.0198082067
Bq        -2.7351057827     2.8075120771     0.3103992110
Bq        -2.7197378574     2.7093148076    -0.0770554614
Bq        -2.7389477640     2.8320613945     0.4072628791
Bq        -2.7158958760     2.6847654903    -0.1739191295
Bq        -2.7427897453     2.8566107119     0.5041265472
Bq        -2.7120538947     2.6602161729    -0.2707827976
Bq        -2.7466317267     2.8811600293     0.6009902152
Bq        -2.7082119134     2.6356668555    -0.3676464656
Bq        -2.7274218200     2.7584134424     0.1166718748
Bq        -2.7302908471     2.8799025917     0.1890055135
Bq        -2.7226068845     2.8308039570    -0.0047218227
Bq        -2.7341328284     2.9044519091     0.2858691816
Bq        -2.7187649031     2.8062546396    -0.1015854908
Bq        -2.7379748098     2.9290012265     0.3827328496
Bq        -2.7149229218     2.7817053222    -0.1984491589
Bq        -2.7418167911     2.9535505438     0.4795965177
Bq        -2.7110809405     2.7571560048    -0.2953128270
Bq        -2.7456587724     2.9780998612     0.5764601858
Bq        -2.7072389591     2.7326066875    -0.3921764951
Bq        -2.7264488658     2.8553532743     0.0921418454
Bq        -2.7293178929     2.9768424236     0.1644754840
Bq        -2.7216339302     2.9277437889    -0.0292518521
Bq        -2.7331598742     3.0013917410     0.2613391521
Bq        -2.7177919489     2.9031944715    -0.1261155202
Bq        -2.7370018556     3.0259410584     0.3582028202
Bq        -2.7139499676     2.8786451541    -0.2229791883
Bq        -2.7408438369     3.0504903758     0.4550664883
Bq        -2.7101079862     2.8540958368    -0.3198428564
Bq        -2.7446858182     3.0750396931     0.5519301564
Bq        -2.7062660049     2.8295465194    -0.4167065245
Bq        -2.7254759116     2.9522931063     0.0676118159
Bq        -2.7283449387     3.0737822556     0.1399454546
Bq        -2.7206609760     3.0246836208    -0.0537818816
Bq        -2.7321869200     3.0983315730     0.2368091227
Bq        -2.7168189947     3.0001343035    -0.1506455497
Bq        -2.7360289013     3.1228808903     0.3336727908
Bq        -2.7129770134     2.9755849861    -0.2475092178
Bq        -2.7398708827     3.1474302077     0.4305364589
Bq        -2.7091350320     2.9510356687    -0.3443728858
Bq        -2.7437128640     3.1719795251     0.5274001270
Bq        -2.7052930507     2.9264863513    -0.4412365539
Bq        -2.7245029573     3.0492329382     0.0430817865
Bq        -2.7273719844     3.1707220875     0.1154154252
Bq        -2.7196880218     3.1216234528    -0.0783119110
Bq        -2.7312139658     3.1952714049     0.2122790933
Bq        -2.7158460405     3.0970741354    -0.1751755791
Bq        -2.7350559471     3.2198207223     0.3091427614
Bq        -2.7120040591     3.0725248180    -0.2720392472
Bq        -2.7388979284     3.2443700397     0.4060064295
Bq        -2.7081620778     3.0479755006    -0.3689029153
Bq        -2.7427399098     3.2689193570     0.5028700975
Bq        -2.7043200965     3.0234261833    -0.4657665834
Bq        -2.7235300031     3.1461727701     0.0185517571
Bq        -2.7263990302     3.2676619195     0.0908853958
Bq        -2.7187150676     3.2185632847    -0.1028419404
Bq        -2.7302410115     3.2922112368     0.1877490638
Bq        -2.7148730862     3.1940139673    -0.1997056085
Bq        -2.7340829929     3.3167605542     0.2846127319
Bq        -2.7110311049     3.1694646500    -0.2965692766
Bq        -2.7379249742     3.3413098716     0.3814764000
Bq        -2.7071891236     3.1449153326    -0.3934329447
Bq        -2.7417669555     3.3658591890     0.4783400681
Bq        -2.7033471422     3.1203660152    -0.4902966128
Bq        -2.7225570489     3.2431126021    -0.0059782723
Bq        -2.7254260760     3.3646017514     0.0663553663
Bq        -2.7177421133     3.3155031167    -0.1273719699
Bq        -2.7292680573     3.3891510688     0.1632190344
Bq        -2.7139001320     3.2909537993    -0.2242356379
Bq        -2.7331100387     3.4137003862     0.2600827025
Bq        -2.7100581507     3.2664044819    -0.3210993060
Bq        -2.7369520200     3.4382497035     0.3569463706
Bq        -2.7062161693     3.2418551645    -0.4179629741
Bq        -2.7407940013     3.4627990209     0.4538100387
Bq        -2.7023741880     3.2173058471    -0.5148266422
Bq        -2.7215840947     3.3400524340    -0.0305083018
Bq        -2.7244531218     3.4615415833     0.0418253369
Bq        -2.7167691591     3.4124429486    -0.1519019993
Bq        -2.7282951031     3.4860909007     0.1386890050
Bq        -2.7129271778     3.3878936312    -0.2487656674
Bq        -2.7321370844     3.5106402181     0.2355526731
Bq        -2.7090851965     3.3633443138    -0.3456293355
Bq        -2.7359790658     3.5351895355     0.3324163412
Bq        -2.7052432151     3.3387949965    -0.4424930035
Bq        -2.7398210471     3.5597388528     0.4292800093
Bq        -2.7014012338     3.3142456791    -0.5393566716
Bq        -2.7206111404     3.4369922660    -0.0550383312
Bq        -2.7234801675     3.5584814153     0.0172953075
Bq        -2.7157962049     3.5093827805    -0.1764320287
Bq        -2.7273221489     3.5830307327     0.1141589756
Bq        -2.7119542236     3.4848334632    -0.2732956968
Bq        -2.7311641302     3.6075800500     0.2110226437
Bq        -2.7081122422     3.4602841458    -0.3701593649
Bq        -2.7350061115     3.6321293674     0.3078863117
Bq        -2.7042702609     3.4357348284    -0.4670230330
Bq        -2.7388480929     3.6566786848     0.4047499798
Bq        -2.7004282796     3.4111855110    -0.5638867011
Bq        -2.7196381862     3.5339320979    -0.0795683606
Bq        -2.7225072133     3.6554212472    -0.0072347220
Bq        -2.7148232507     3.6063226125    -0.2009620581
Bq        -2.7263491947     3.6799705646     0.0896289461
Bq        -2.7109812693     3.5817732951    -0.2978257262
Bq        -2.7301911760     3.7045198820     0.1864926142

1
2
3
4
5
6
7
8
9
10
11
12
13
14
15
16
17
18
19
20
21
22
23
24
25
26
27
28
29
30
31
32
33
34
35
36
37
38
39
40
41
42
43
44
45
46
47
48
49
50
51
52
53
54
55
56
57
58
59
60
61
62
63
64
65
66
67
68
69
70
71
72
73
74
75
76
77
78
79
80
81
82
83
84
85
86
87
88
89
90
91
92
93
94
95
96
97
98
99
100
101
102
103
104
105
106
107
108
109
110
111
112
113
114
115
116
117
118
119
120
121
122
123
124
125
126
127
128
129
130
131
132
133
134
135
136
137
138
139
140
141
142
143
144
145
146
147
148
149
150
151
152
153
154
155
156
157
158
159
160
161
162
163
164
165
166
167
168
169
170
171
172
173
174
175
176
177
178
179
180
181
182
183
184
185
186
187
188
189
190
191
192
193
194
195
196
197
198
199
200
201
202
203
204
205
206
207
208
209
210
211
212
213
214
215
216
217
218
219
220
221
222
223
224
225
226
227
228
229
230
231
232
233
234
235
236

