%nproc=8
%mem=1000MB
# rb3lyp/6-311+g** NMR geom=connectivity

Title

0 1
C    -4.0500558   -0.5771862    0.8136712
H    -5.0263804   -1.0082727    1.0024760
C    -3.9381552    0.6617804    0.2400876
H    -4.8252424    1.2338890   -0.0111295
C    -2.6768410    1.2433246    0.0057578
C    -1.4974121    0.5051527    0.2848253
C    -1.6508332   -0.7338728    0.9404026
H    -0.7713646   -1.2730967    1.2633753
C    -2.8898548   -1.2624035    1.1994307
H    -2.9683706   -2.2124563    1.7152676
C    -2.5773185    2.5963696   -0.4192930
H    -3.4870728    3.1412239   -0.6474055
C    -1.3741895    3.2147896   -0.4364030
H    -1.2997315    4.2742019   -0.6578144
C    -0.1719488    2.4994090   -0.1734588
C    -0.2043917    1.1018437    0.0192689
C     1.0513491    3.2042560   -0.0676222
H     1.0427344    4.2819499   -0.1896997
C     2.1942091    2.5487446    0.2579577
H     3.1168527    3.0912848    0.4334727
C     2.2216473    1.1336562    0.2934990
C     1.0486931    0.3945528    0.0302412
C     3.4483363    0.4614633    0.5573939
H     4.3095794    1.0606054    0.8334846
C     3.5427346   -0.8855926    0.4749463
H     4.4731467   -1.3939704    0.7038822
C     2.4490052   -1.6474447   -0.0196319
C     1.2150704   -1.0057258   -0.3013573
C     0.2531113   -1.7434440   -1.0216591
H    -0.6541356   -1.2535051   -1.3462847
C     0.4494193   -3.0628597   -1.3413779
H    -0.3083162   -3.5944309   -1.9054060
C     1.6251726   -3.7207967   -0.9552541
H     1.7670048   -4.7687404   -1.1927019
C     2.6109872   -3.0144177   -0.3183050
H     3.5525612   -3.4902813   -0.0646367
Bq         2.2660454546    -3.5591824987    -0.0738058052
Bq         2.2151772175    -3.4894051671     0.0381921700
Bq         2.2949007450    -3.4361738649    -0.1373372794
Bq         2.1753154537    -3.5160208182     0.1259568947
Bq         2.3347625088    -3.4095582138    -0.2251020042
Bq         2.1354536899    -3.5426364693     0.2137216194
Bq         2.3746242726    -3.3829425627    -0.3128667289
Bq         2.0955919261    -3.5692521204     0.3014863441
Bq         2.4144860364    -3.3563269116    -0.4006314536
Bq         2.0557301623    -3.5958677715     0.3892510688
Bq         2.4543478002    -3.3297112605    -0.4883961783
Bq         2.2550389813    -3.4627895160    -0.0495725547
Bq         2.2041707441    -3.3930121844     0.0624254204
Bq         2.2838942717    -3.3397808822    -0.1131040290
Bq         2.1643089803    -3.4196278355     0.1501901452
Bq         2.3237560355    -3.3131652311    -0.2008687537
Bq         2.1244472165    -3.4462434866     0.2379548699
Bq         2.3636177992    -3.2865495800    -0.2886334784
Bq         2.0845854527    -3.4728591377     0.3257195946
Bq         2.4034795630    -3.2599339288    -0.3763982031
Bq         2.0447236889    -3.4994747888     0.4134843193
Bq         2.4433413268    -3.2333182777    -0.4641629278
Bq         2.2440325079    -3.3663965333    -0.0253393043
Bq         2.1931642707    -3.2966192017     0.0866586709
Bq         2.2728877983    -3.2433878995    -0.0888707785
Bq         2.1533025069    -3.3232348528     0.1744233956
Bq         2.3127495621    -3.2167722484    -0.1766355032
Bq         2.1134407431    -3.3498505039     0.2621881203
Bq         2.3526113259    -3.1901565972    -0.2644002280
Bq         2.0735789794    -3.3764661550     0.3499528450
Bq         2.3924730897    -3.1635409461    -0.3521649527
Bq         2.0337172156    -3.4030818061     0.4377175697
Bq         2.4323348534    -3.1369252950    -0.4399296774
Bq         2.2330260345    -3.2700035506    -0.0011060538
Bq         2.1821577973    -3.2002262190     0.1108919214
Bq         2.2618813249    -3.1469949167    -0.0646375281
Bq         2.1422960336    -3.2268418701     0.1986566461
Bq         2.3017430887    -3.1203792656    -0.1524022528
Bq         2.1024342698    -3.2534575212     0.2864213708
Bq         2.3416048525    -3.0937636145    -0.2401669775
Bq         2.0625725060    -3.2800731723     0.3741860955
Bq         2.3814666163    -3.0671479634    -0.3279317022
Bq         2.0227107422    -3.3066888234     0.4619508202
Bq         2.4213283801    -3.0405323123    -0.4156964269
Bq         2.2220195611    -3.1736105679     0.0231271966
Bq         2.1711513240    -3.1038332362     0.1351251718
Bq         2.2508748516    -3.0506019340    -0.0404042776
Bq         2.1312895602    -3.1304488874     0.2228898965
Bq         2.2907366153    -3.0239862829    -0.1281690023
Bq         2.0914277964    -3.1570645385     0.3106546212
Bq         2.3305983791    -2.9973706318    -0.2159337270
Bq         2.0515660326    -3.1836801896     0.3984193459
Bq         2.3704601429    -2.9707549807    -0.3036984518
Bq         2.0117042688    -3.2102958407     0.4861840707
Bq         2.4103219067    -2.9441393296    -0.3914631765
Bq         2.2110130878    -3.0772175851     0.0473604471
Bq         2.1601448506    -3.0074402535     0.1593584223
Bq         2.2398683782    -2.9542089513    -0.0161710272
Bq         2.1202830868    -3.0340559046     0.2471231470
Bq         2.2797301420    -2.9275933002    -0.1039357519
Bq         2.0804213230    -3.0606715558     0.3348878717
Bq         2.3195919058    -2.9009776491    -0.1917004766
Bq         2.0405595592    -3.0872872069     0.4226525964
Bq         2.3594536695    -2.8743619980    -0.2794652013
Bq         2.0006977955    -3.1139028580     0.5104173211
Bq         2.3993154333    -2.8477463469    -0.3672299260
Bq         2.2000066144    -2.9808246024     0.0715936976
Bq         2.1491383772    -2.9110472708     0.1835916727
Bq         2.2288619048    -2.8578159686     0.0080622233
Bq         2.1092766134    -2.9376629219     0.2713563974
Bq         2.2687236686    -2.8312003175    -0.0797025014
Bq         2.0694148497    -2.9642785730     0.3591211222
Bq         2.3085854324    -2.8045846664    -0.1674672261
Bq         2.0295530859    -2.9908942241     0.4468858469
Bq         2.3484471962    -2.7779690153    -0.2552319508
Bq         1.9896913221    -3.0175098753     0.5346505716
Bq         2.3883089600    -2.7513533642    -0.3429966755
Bq         2.1890001410    -2.8844316197     0.0958269480
Bq         2.1381319039    -2.8146542881     0.2078249232
Bq         2.2178554314    -2.7614229859     0.0322954738
Bq         2.0982701401    -2.8412699392     0.2955896479
Bq         2.2577171952    -2.7348073348    -0.0554692510
Bq         2.0584083763    -2.8678855903     0.3833543726
Bq         2.2975789590    -2.7081916837    -0.1432339757
Bq         2.0185466125    -2.8945012414     0.4711190973
Bq         2.3374407228    -2.6815760326    -0.2309987004
Bq         1.9786848487    -2.9211168925     0.5588838220
Bq         2.3773024866    -2.6549603815    -0.3187634251
Bq         2.1779936676    -2.7880386370     0.1200601985
Bq         2.1271254305    -2.7182613054     0.2320581736
Bq         2.2068489581    -2.6650300032     0.0565287242
Bq         2.0872636667    -2.7448769565     0.3198228984
Bq         2.2467107219    -2.6384143521    -0.0312360005
Bq         2.0474019029    -2.7714926076     0.4075876231
Bq         2.2865724856    -2.6117987010    -0.1190007252
Bq         2.0075401391    -2.7981082587     0.4953523478
Bq         2.3264342494    -2.5851830499    -0.2067654499
Bq         1.9676783753    -2.8247239098     0.5831170725
Bq         2.3662960132    -2.5585673988    -0.2945301746
Bq         2.1669871943    -2.6916456543     0.1442934489
Bq         2.1161189571    -2.6218683227     0.2562914241
Bq         2.1958424847    -2.5686370205     0.0807619747
Bq         2.0762571933    -2.6484839738     0.3440561488
Bq         2.2357042485    -2.5420213694    -0.0070027500
Bq         2.0363954295    -2.6750996249     0.4318208735
Bq         2.2755660123    -2.5154057183    -0.0947674747
Bq         1.9965336658    -2.7017152760     0.5195855982
Bq         2.3154277761    -2.4887900672    -0.1825321995
Bq         1.9566719020    -2.7283309271     0.6073503230
Bq         2.3552895398    -2.4621744160    -0.2702969242
Bq         2.1559807209    -2.5952526716     0.1685266994
Bq         2.1051124837    -2.5254753400     0.2805246746
Bq         2.1848360113    -2.4722440378     0.1049952251
Bq         2.0652507200    -2.5520909911     0.3682893993
Bq         2.2246977751    -2.4456283867     0.0172305004
Bq         2.0253889562    -2.5787066422     0.4560541240
Bq         2.2645595389    -2.4190127355    -0.0705342243
Bq         1.9855271924    -2.6053222933     0.5438188487
Bq         2.3044213027    -2.3923970844    -0.1582989490
Bq         1.9456654286    -2.6319379444     0.6315835734
Bq         2.3442830665    -2.3657814333    -0.2460636737
Bq         2.1449742475    -2.4988596889     0.1927599498
Bq         2.0941060104    -2.4290823573     0.3047579250
Bq         2.1738295379    -2.3758510550     0.1292284756
Bq         2.0542442466    -2.4556980084     0.3925226497
Bq         2.2136913017    -2.3492354039     0.0414637509
Bq         2.0143824828    -2.4823136595     0.4802873744
Bq         2.2535530655    -2.3226197528    -0.0463009738
Bq         1.9745207190    -2.5089293106     0.5680520992
Bq         2.2934148293    -2.2960041017    -0.1340656985
Bq         1.9346589552    -2.5355449617     0.6558168239
Bq         2.3332765931    -2.2693884506    -0.2218304233
Bq         2.1339677742    -2.4024667062     0.2169932003
Bq         2.0830995370    -2.3326893746     0.3289911755
Bq         2.1628230646    -2.2794580723     0.1534617261
Bq         2.0432377732    -2.3593050257     0.4167559002
Bq         2.2026848284    -2.2528424212     0.0656970013
Bq         2.0033760094    -2.3859206768     0.5045206249
Bq         2.2425465921    -2.2262267701    -0.0220677234
Bq         1.9635142456    -2.4125363279     0.5922853496
Bq         2.2824083559    -2.1996111190    -0.1098324481
Bq         1.9236524818    -2.4391519790     0.6800500743
Bq         2.3222701197    -2.1729954679    -0.1975971728
Bq         2.1229613008    -2.3060737234     0.2412264508
Bq         2.0720930636    -2.2362963918     0.3532244259
Bq         2.1518165912    -2.1830650896     0.1776949765
Bq         2.0322312998    -2.2629120429     0.4409891506
Bq         2.1916783550    -2.1564494385     0.0899302518
Bq         1.9923695361    -2.2895276941     0.5287538754
Bq         2.2315401188    -2.1298337874     0.0021655271
Bq         1.9525077723    -2.3161433452     0.6165186001
Bq         2.2714018826    -2.1032181363    -0.0855991976
Bq         1.9126460085    -2.3427589963     0.7042833248
Bq         2.3112636464    -2.0766024852    -0.1733639223
Bq         2.1119548274    -2.2096807407     0.2654597012
Bq         2.0610865903    -2.1399034091     0.3774576764
Bq         2.1408101178    -2.0866721069     0.2019282270
Bq         2.0212248265    -2.1665190602     0.4652224011
Bq         2.1806718816    -2.0600564558     0.1141635023
Bq         1.9813630627    -2.1931347113     0.5529871258
Bq         2.2205336454    -2.0334408047     0.0263987775
Bq         1.9415012989    -2.2197503624     0.6407518505
Bq         2.2603954092    -2.0068251536    -0.0613659472
Bq         1.9016395351    -2.2463660136     0.7285165752
Bq         2.3002571730    -1.9802095025    -0.1491306719
Bq         2.1009483540    -2.1132877580     0.2896929517
Bq         2.0500801169    -2.0435104264     0.4016909268
Bq         2.1298036445    -1.9902791242     0.2261614774
Bq         2.0102183531    -2.0701260775     0.4894556516
Bq         2.1696654082    -1.9636634731     0.1383967527
Bq         1.9703565893    -2.0967417286     0.5772203763
Bq         2.2095271720    -1.9370478220     0.0506320280
Bq         1.9304948255    -2.1233573797     0.6649851010
Bq         2.2493889358    -1.9104321709    -0.0371326967
Bq         1.8906330617    -2.1499730308     0.7527498257
Bq         2.2892506996    -1.8838165198    -0.1248974214
Bq         2.0899418807    -2.0168947753     0.3139262021
Bq         2.0390736435    -1.9471174437     0.4259241773
Bq         2.1187971711    -1.8938861415     0.2503947279
Bq         1.9992118797    -1.9737330948     0.5136889020
Bq         2.1586589349    -1.8672704904     0.1626300032
Bq         1.9593501159    -2.0003487459     0.6014536267
Bq         2.1985206987    -1.8406548393     0.0748652785
Bq         1.9194883521    -2.0269643970     0.6892183514
Bq         2.2383824624    -1.8140391882    -0.0128994463
Bq         1.8796265884    -2.0535800481     0.7769830762
Bq         2.2782442262    -1.7874235371    -0.1006641710
Bq         2.0789354073    -1.9205017926     0.3381594526
Bq         2.0280671701    -1.8507244610     0.4501574278
Bq         2.1077906977    -1.7974931588     0.2746279783
Bq         1.9882054064    -1.8773401121     0.5379221525
Bq         2.1476524615    -1.7708775077     0.1868632536
Bq         1.9483436426    -1.9039557632     0.6256868772
Bq         2.1875142253    -1.7442618566     0.0990985289
Bq         1.9084818788    -1.9305714143     0.7134516019
Bq         2.2273759891    -1.7176462055     0.0113338042
Bq         1.8686201150    -1.9571870654     0.8012163266
Bq         2.2672377529    -1.6910305543    -0.0764309205
Bq         2.0679289339    -1.8241088099     0.3623927031
Bq         2.0170606968    -1.7543314783     0.4743906782

1
2
3
4
5
6
7
8
9
10
11
12
13
14
15
16
17
18
19
20
21
22
23
24
25
26
27
28
29
30
31
32
33
34
35
36
37
38
39
40
41
42
43
44
45
46
47
48
49
50
51
52
53
54
55
56
57
58
59
60
61
62
63
64
65
66
67
68
69
70
71
72
73
74
75
76
77
78
79
80
81
82
83
84
85
86
87
88
89
90
91
92
93
94
95
96
97
98
99
100
101
102
103
104
105
106
107
108
109
110
111
112
113
114
115
116
117
118
119
120
121
122
123
124
125
126
127
128
129
130
131
132
133
134
135
136
137
138
139
140
141
142
143
144
145
146
147
148
149
150
151
152
153
154
155
156
157
158
159
160
161
162
163
164
165
166
167
168
169
170
171
172
173
174
175
176
177
178
179
180
181
182
183
184
185
186
187
188
189
190
191
192
193
194
195
196
197
198
199
200
201
202
203
204
205
206
207
208
209
210
211
212
213
214
215
216
217
218
219
220
221
222
223
224
225
226
227
228
229
230
231
232
233
234
235
236

