%nproc=8
%mem=1000MB
# rb3lyp/6-311+g** NMR geom=connectivity

Title

0 1
C    -4.0500558   -0.5771862    0.8136712
H    -5.0263804   -1.0082727    1.0024760
C    -3.9381552    0.6617804    0.2400876
H    -4.8252424    1.2338890   -0.0111295
C    -2.6768410    1.2433246    0.0057578
C    -1.4974121    0.5051527    0.2848253
C    -1.6508332   -0.7338728    0.9404026
H    -0.7713646   -1.2730967    1.2633753
C    -2.8898548   -1.2624035    1.1994307
H    -2.9683706   -2.2124563    1.7152676
C    -2.5773185    2.5963696   -0.4192930
H    -3.4870728    3.1412239   -0.6474055
C    -1.3741895    3.2147896   -0.4364030
H    -1.2997315    4.2742019   -0.6578144
C    -0.1719488    2.4994090   -0.1734588
C    -0.2043917    1.1018437    0.0192689
C     1.0513491    3.2042560   -0.0676222
H     1.0427344    4.2819499   -0.1896997
C     2.1942091    2.5487446    0.2579577
H     3.1168527    3.0912848    0.4334727
C     2.2216473    1.1336562    0.2934990
C     1.0486931    0.3945528    0.0302412
C     3.4483363    0.4614633    0.5573939
H     4.3095794    1.0606054    0.8334846
C     3.5427346   -0.8855926    0.4749463
H     4.4731467   -1.3939704    0.7038822
C     2.4490052   -1.6474447   -0.0196319
C     1.2150704   -1.0057258   -0.3013573
C     0.2531113   -1.7434440   -1.0216591
H    -0.6541356   -1.2535051   -1.3462847
C     0.4494193   -3.0628597   -1.3413779
H    -0.3083162   -3.5944309   -1.9054060
C     1.6251726   -3.7207967   -0.9552541
H     1.7670048   -4.7687404   -1.1927019
C     2.6109872   -3.0144177   -0.3183050
H     3.5525612   -3.4902813   -0.0646367
Bq         0.9571224240     2.3228129174     0.5796901211
Bq         0.9724903493     2.2246156479     0.1922354487
Bq         0.9532804427     2.3473622348     0.6765537892
Bq         0.9763323307     2.2000663306     0.0953717806
Bq         0.9494384614     2.3719115522     0.7734174573
Bq         0.9801743120     2.1755170132    -0.0014918875
Bq         0.9455964800     2.3964608696     0.8702811254
Bq         0.9840162933     2.1509676958    -0.0983555555
Bq         0.9648063867     2.2737142827     0.3859627849
Bq         0.9619373596     2.3952034320     0.4582964236
Bq         0.9696213222     2.3461047973     0.2645690874
Bq         0.9580953783     2.4197527494     0.5551600917
Bq         0.9734633036     2.3215554799     0.1677054193
Bq         0.9542533969     2.4443020668     0.6520237597
Bq         0.9773052849     2.2970061625     0.0708417512
Bq         0.9504114156     2.4688513841     0.7488874278
Bq         0.9811472662     2.2724568451    -0.0260219169
Bq         0.9465694343     2.4934007015     0.8457510959
Bq         0.9849892476     2.2479075278    -0.1228855850
Bq         0.9657793409     2.3706541146     0.3614327555
Bq         0.9629103138     2.4921432640     0.4337663941
Bq         0.9705942765     2.4430446292     0.2400390580
Bq         0.9590683325     2.5166925813     0.5306300622
Bq         0.9744362578     2.4184953118     0.1431753899
Bq         0.9552263511     2.5412418987     0.6274937303
Bq         0.9782782391     2.3939459944     0.0463117218
Bq         0.9513843698     2.5657912161     0.7243573984
Bq         0.9821202205     2.3693966771    -0.0505519463
Bq         0.9475423885     2.5903405335     0.8212210665
Bq         0.9859622018     2.3448473597    -0.1474156144
Bq         0.9667522951     2.4675939466     0.3369027261
Bq         0.9638832680     2.5890830959     0.4092363647
Bq         0.9715672307     2.5399844611     0.2155090285
Bq         0.9600412867     2.6136324133     0.5061000328
Bq         0.9754092120     2.5154351438     0.1186453604
Bq         0.9561993054     2.6381817306     0.6029637009
Bq         0.9792511933     2.4908858264     0.0217816924
Bq         0.9523573240     2.6627310480     0.6998273690
Bq         0.9830931747     2.4663365090    -0.0750819757
Bq         0.9485153427     2.6872803654     0.7966910371
Bq         0.9869351560     2.4417871916    -0.1719456438
Bq         0.9677252494     2.5645337785     0.3123726966
Bq         0.9648562223     2.6860229278     0.3847063353
Bq         0.9725401849     2.6369242931     0.1909789991
Bq         0.9610142409     2.7105722452     0.4815700034
Bq         0.9763821662     2.6123749757     0.0941153310
Bq         0.9571722596     2.7351215626     0.5784336715
Bq         0.9802241476     2.5878256583    -0.0027483371
Bq         0.9533302783     2.7596708800     0.6752973396
Bq         0.9840661289     2.5632763409    -0.0996120052
Bq         0.9494882969     2.7842201973     0.7721610076
Bq         0.9879081102     2.5387270236    -0.1964756733
Bq         0.9686982036     2.6614736105     0.2878426672
Bq         0.9658291765     2.7829627598     0.3601763059
Bq         0.9735131391     2.7338641250     0.1664489697
Bq         0.9619871951     2.8075120771     0.4570399740
Bq         0.9773551205     2.7093148076     0.0695853016
Bq         0.9581452138     2.8320613945     0.5539036420
Bq         0.9811971018     2.6847654903    -0.0272783665
Bq         0.9543032325     2.8566107119     0.6507673101
Bq         0.9850390831     2.6602161729    -0.1241420346
Bq         0.9504612512     2.8811600293     0.7476309782
Bq         0.9888810645     2.6356668555    -0.2210057027
Bq         0.9696711578     2.7584134424     0.2633126378
Bq         0.9668021307     2.8799025917     0.3356462764
Bq         0.9744860934     2.8308039570     0.1419189403
Bq         0.9629601494     2.9044519091     0.4325099445
Bq         0.9783280747     2.8062546396     0.0450552722
Bq         0.9591181680     2.9290012265     0.5293736126
Bq         0.9821700560     2.7817053222    -0.0518083959
Bq         0.9552761867     2.9535505438     0.6262372807
Bq         0.9860120373     2.7571560048    -0.1486720640
Bq         0.9514342054     2.9780998612     0.7231009488
Bq         0.9898540187     2.7326066875    -0.2455357321
Bq         0.9706441120     2.8553532743     0.2387826083
Bq         0.9677750849     2.9768424236     0.3111162470
Bq         0.9754590476     2.9277437889     0.1173889108
Bq         0.9639331036     3.0013917410     0.4079799151
Bq         0.9793010289     2.9031944715     0.0205252427
Bq         0.9600911223     3.0259410584     0.5048435832
Bq         0.9831430102     2.8786451541    -0.0763384254
Bq         0.9562491409     3.0504903758     0.6017072513
Bq         0.9869849916     2.8540958368    -0.1732020934
Bq         0.9524071596     3.0750396931     0.6985709194
Bq         0.9908269729     2.8295465194    -0.2700657615
Bq         0.9716170663     2.9522931063     0.2142525789
Bq         0.9687480392     3.0737822556     0.2865862176
Bq         0.9764320018     3.0246836208     0.0928588814
Bq         0.9649060578     3.0983315730     0.3834498857
Bq         0.9802739831     3.0001343035    -0.0040047867
Bq         0.9610640765     3.1228808903     0.4803135538
Bq         0.9841159645     2.9755849861    -0.1008684548
Bq         0.9572220952     3.1474302077     0.5771772218
Bq         0.9879579458     2.9510356687    -0.1977321229
Bq         0.9533801138     3.1719795251     0.6740408899
Bq         0.9917999271     2.9264863513    -0.2945957910
Bq         0.9725900205     3.0492329382     0.1897225495
Bq         0.9697209934     3.1707220875     0.2620561882
Bq         0.9774049560     3.1216234528     0.0683288520
Bq         0.9658790120     3.1952714049     0.3589198562
Bq         0.9812469374     3.0970741354    -0.0285348161
Bq         0.9620370307     3.2198207223     0.4557835243
Bq         0.9850889187     3.0725248180    -0.1253984842
Bq         0.9581950494     3.2443700397     0.5526471924
Bq         0.9889309000     3.0479755006    -0.2222621523
Bq         0.9543530681     3.2689193570     0.6495108605
Bq         0.9927728814     3.0234261833    -0.3191258204
Bq         0.9735629747     3.1461727701     0.1651925201
Bq         0.9706939476     3.2676619195     0.2375261587
Bq         0.9783779103     3.2185632847     0.0437988225
Bq         0.9668519663     3.2922112368     0.3343898268
Bq         0.9822198916     3.1940139673    -0.0530648455
Bq         0.9630099849     3.3167605542     0.4312534949
Bq         0.9860618729     3.1694646500    -0.1499285136
Bq         0.9591680036     3.3413098716     0.5281171630
Bq         0.9899038542     3.1449153326    -0.2467921817
Bq         0.9553260223     3.3658591890     0.6249808311
Bq         0.9937458356     3.1203660152    -0.3436558498
Bq         0.9745359289     3.2431126021     0.1406624906
Bq         0.9716669018     3.3646017514     0.2129961293
Bq         0.9793508645     3.3155031167     0.0192687931
Bq         0.9678249205     3.3891510688     0.3098597974
Bq         0.9831928458     3.2909537993    -0.0775948750
Bq         0.9639829392     3.4137003862     0.4067234655
Bq         0.9870348271     3.2664044819    -0.1744585431
Bq         0.9601409578     3.4382497035     0.5035871336
Bq         0.9908768085     3.2418551645    -0.2713222112
Bq         0.9562989765     3.4627990209     0.6004508017
Bq         0.9947187898     3.2173058471    -0.3681858792
Bq         0.9755088832     3.3400524340     0.1161324612
Bq         0.9726398560     3.4615415833     0.1884660999
Bq         0.9803238187     3.4124429486    -0.0052612363
Bq         0.9687978747     3.4860909007     0.2853297680
Bq         0.9841658000     3.3878936312    -0.1021249044
Bq         0.9649558934     3.5106402181     0.3821934361
Bq         0.9880077814     3.3633443138    -0.1989885725
Bq         0.9611139121     3.5351895355     0.4790571041
Bq         0.9918497627     3.3387949965    -0.2958522406
Bq         0.9572719307     3.5597388528     0.5759207722
Bq         0.9956917440     3.3142456791    -0.3927159087
Bq         0.9764818374     3.4369922660     0.0916024318
Bq         0.9736128103     3.5584814153     0.1639360704
Bq         0.9812967729     3.5093827805    -0.0297912657
Bq         0.9697708289     3.5830307327     0.2607997385
Bq         0.9851387543     3.4848334632    -0.1266549338
Bq         0.9659288476     3.6075800500     0.3576634066
Bq         0.9889807356     3.4602841458    -0.2235186019
Bq         0.9620868663     3.6321293674     0.4545270747
Bq         0.9928227169     3.4357348284    -0.3203822700
Bq         0.9582448850     3.6566786848     0.5513907428
Bq         0.9966646982     3.4111855110    -0.4172459381
Bq         0.9774547916     3.5339320979     0.0670724024
Bq         0.9745857645     3.6554212472     0.1394060410
Bq         0.9822697272     3.6063226125    -0.0543212952
Bq         0.9707437832     3.6799705646     0.2362697091
Bq         0.9861117085     3.5817732951    -0.1511849633
Bq         0.9669018018     3.7045198820     0.3331333772
Bq         0.9899536898     3.5572239777    -0.2480486313
Bq         0.9630598205     3.7290691993     0.4299970453
Bq         0.9937956711     3.5326746603    -0.3449122994
Bq         0.9592178392     3.7536185167     0.5268607134
Bq         0.9976376525     3.5081253430    -0.4417759675
Bq         0.9784277458     3.6308719298     0.0425423729
Bq         0.9755587187     3.7523610792     0.1148760116
Bq         0.9832426814     3.7032624444    -0.0788513246
Bq         0.9717167374     3.7769103965     0.2117396797
Bq         0.9870846627     3.6787131270    -0.1757149927
Bq         0.9678747561     3.8014597139     0.3086033478
Bq         0.9909266440     3.6541638097    -0.2725786608
Bq         0.9640327747     3.8260090313     0.4054670159
Bq         0.9947686254     3.6296144923    -0.3694423289
Bq         0.9601907934     3.8505583487     0.5023306839
Bq         0.9986106067     3.6050651749    -0.4663059970
Bq         0.9794007001     3.7278117618     0.0180123435
Bq         0.9765316729     3.8493009111     0.0903459822
Bq         0.9842156356     3.8002022763    -0.1033813540
Bq         0.9726896916     3.8738502285     0.1872096503
Bq         0.9880576169     3.7756529590    -0.2002450221
Bq         0.9688477103     3.8983995458     0.2840733183
Bq         0.9918995983     3.7511036416    -0.2971086902
Bq         0.9650057290     3.9229488632     0.3809369864
Bq         0.9957415796     3.7265543242    -0.3939723583
Bq         0.9611637476     3.9474981806     0.4778006545
Bq         0.9995835609     3.7020050068    -0.4908360264
Bq         0.9803736543     3.8247515937    -0.0065176859
Bq         0.9775046272     3.9462407430     0.0658159527
Bq         0.9851885898     3.8971421083    -0.1279113834
Bq         0.9736626458     3.9707900604     0.1626796208
Bq         0.9890305712     3.8725927909    -0.2247750515
Bq         0.9698206645     3.9953393778     0.2595432889
Bq         0.9928725525     3.8480434735    -0.3216387196
Bq         0.9659786832     4.0198886952     0.3564069570
Bq         0.9967145338     3.8234941562    -0.4185023877
Bq         0.9621367019     4.0444380125     0.4532706251
Bq         1.0005565151     3.7989448388    -0.5153660558
Bq         0.9813466085     3.9216914257    -0.0310477154
Bq         0.9784775814     4.0431805750     0.0412859233
Bq         0.9861615441     3.9940819402    -0.1524414129
Bq         0.9746356001     4.0677298924     0.1381495914
Bq         0.9900035254     3.9695326228    -0.2493050810

1
2
3
4
5
6
7
8
9
10
11
12
13
14
15
16
17
18
19
20
21
22
23
24
25
26
27
28
29
30
31
32
33
34
35
36
37
38
39
40
41
42
43
44
45
46
47
48
49
50
51
52
53
54
55
56
57
58
59
60
61
62
63
64
65
66
67
68
69
70
71
72
73
74
75
76
77
78
79
80
81
82
83
84
85
86
87
88
89
90
91
92
93
94
95
96
97
98
99
100
101
102
103
104
105
106
107
108
109
110
111
112
113
114
115
116
117
118
119
120
121
122
123
124
125
126
127
128
129
130
131
132
133
134
135
136
137
138
139
140
141
142
143
144
145
146
147
148
149
150
151
152
153
154
155
156
157
158
159
160
161
162
163
164
165
166
167
168
169
170
171
172
173
174
175
176
177
178
179
180
181
182
183
184
185
186
187
188
189
190
191
192
193
194
195
196
197
198
199
200
201
202
203
204
205
206
207
208
209
210
211
212
213
214
215
216
217
218
219
220
221
222
223
224
225
226
227
228
229
230
231
232
233
234
235
236

