%nproc=8
%mem=1000MB
# rb3lyp/6-311+g** NMR geom=connectivity

Title

0 1
C    -4.0500558   -0.5771862    0.8136712
H    -5.0263804   -1.0082727    1.0024760
C    -3.9381552    0.6617804    0.2400876
H    -4.8252424    1.2338890   -0.0111295
C    -2.6768410    1.2433246    0.0057578
C    -1.4974121    0.5051527    0.2848253
C    -1.6508332   -0.7338728    0.9404026
H    -0.7713646   -1.2730967    1.2633753
C    -2.8898548   -1.2624035    1.1994307
H    -2.9683706   -2.2124563    1.7152676
C    -2.5773185    2.5963696   -0.4192930
H    -3.4870728    3.1412239   -0.6474055
C    -1.3741895    3.2147896   -0.4364030
H    -1.2997315    4.2742019   -0.6578144
C    -0.1719488    2.4994090   -0.1734588
C    -0.2043917    1.1018437    0.0192689
C     1.0513491    3.2042560   -0.0676222
H     1.0427344    4.2819499   -0.1896997
C     2.1942091    2.5487446    0.2579577
H     3.1168527    3.0912848    0.4334727
C     2.2216473    1.1336562    0.2934990
C     1.0486931    0.3945528    0.0302412
C     3.4483363    0.4614633    0.5573939
H     4.3095794    1.0606054    0.8334846
C     3.5427346   -0.8855926    0.4749463
H     4.4731467   -1.3939704    0.7038822
C     2.4490052   -1.6474447   -0.0196319
C     1.2150704   -1.0057258   -0.3013573
C     0.2531113   -1.7434440   -1.0216591
H    -0.6541356   -1.2535051   -1.3462847
C     0.4494193   -3.0628597   -1.3413779
H    -0.3083162   -3.5944309   -1.9054060
C     1.6251726   -3.7207967   -0.9552541
H     1.7670048   -4.7687404   -1.1927019
C     2.6109872   -3.0144177   -0.3183050
H     3.5525612   -3.4902813   -0.0646367
Bq        -4.2876925207    -0.4432329223     1.5530132340
Bq        -4.2862765384    -0.6171637904     1.1928104464
Bq        -4.2880465163    -0.3997502053     1.6430639309
Bq        -4.2859225428    -0.6606465074     1.1027597496
Bq        -4.2884005119    -0.3562674883     1.7331146277
Bq        -4.2855685473    -0.7041292244     1.0127090527
Bq        -4.2887545074    -0.3127847713     1.8231653246
Bq        -4.2852145517    -0.7476119414     0.9226583558
Bq        -4.2869845296    -0.5301983563     1.3729118402
Bq        -4.2871675929    -0.3966642467     1.4194801561
Bq        -4.2864596017    -0.4836296807     1.2393787623
Bq        -4.2875215884    -0.3531815297     1.5095308529
Bq        -4.2861056061    -0.5271123977     1.1493280654
Bq        -4.2878755840    -0.3096988127     1.5995815498
Bq        -4.2857516106    -0.5705951147     1.0592773685
Bq        -4.2882295796    -0.2662160957     1.6896322467
Bq        -4.2853976150    -0.6140778317     0.9692266716
Bq        -4.2885835752    -0.2227333786     1.7796829436
Bq        -4.2850436194    -0.6575605487     0.8791759748
Bq        -4.2868135973    -0.4401469637     1.3294294592
Bq        -4.2869966606    -0.3066128540     1.3759977750
Bq        -4.2862886694    -0.3935782880     1.1958963813
Bq        -4.2873506562    -0.2631301370     1.4660484719
Bq        -4.2859346739    -0.4370610050     1.1058456844
Bq        -4.2877046517    -0.2196474200     1.5560991688
Bq        -4.2855806783    -0.4805437220     1.0157949875
Bq        -4.2880586473    -0.1761647030     1.6461498657
Bq        -4.2852266827    -0.5240264390     0.9257442906
Bq        -4.2884126429    -0.1326819860     1.7362005626
Bq        -4.2848726871    -0.5675091560     0.8356935937
Bq        -4.2866426650    -0.3500955710     1.2859470781
Bq        -4.2868257283    -0.2165614613     1.3325153940
Bq        -4.2861177372    -0.3035268953     1.1524140002
Bq        -4.2871797239    -0.1730787443     1.4225660909
Bq        -4.2857637416    -0.3470096123     1.0623633033
Bq        -4.2875337195    -0.1295960273     1.5126167878
Bq        -4.2854097460    -0.3904923293     0.9723126065
Bq        -4.2878877150    -0.0861133103     1.6026674846
Bq        -4.2850557504    -0.4339750463     0.8822619096
Bq        -4.2882417106    -0.0426305933     1.6927181815
Bq        -4.2847017549    -0.4774577634     0.7922112127
Bq        -4.2864717327    -0.2600441783     1.2424646971
Bq        -4.2866547960    -0.1265100687     1.2890330130
Bq        -4.2859468049    -0.2134755027     1.1089316192
Bq        -4.2870087916    -0.0830273517     1.3790837098
Bq        -4.2855928093    -0.2569582197     1.0188809223
Bq        -4.2873627872    -0.0395446346     1.4691344067
Bq        -4.2852388137    -0.3004409367     0.9288302254
Bq        -4.2877167828     0.0039380824     1.5591851036
Bq        -4.2848848182    -0.3439236537     0.8387795285
Bq        -4.2880707783     0.0474207994     1.6492358005
Bq        -4.2845308226    -0.3874063707     0.7487288317
Bq        -4.2863008005    -0.1699927857     1.1989823161
Bq        -4.2864838638    -0.0364586760     1.2455506319
Bq        -4.2857758726    -0.1234241100     1.0654492382
Bq        -4.2868378593     0.0070240410     1.3356013288
Bq        -4.2854218770    -0.1669068270     0.9753985413
Bq        -4.2871918549     0.0505067580     1.4256520257
Bq        -4.2850678815    -0.2103895440     0.8853478444
Bq        -4.2875458505     0.0939894750     1.5157027226
Bq        -4.2847138859    -0.2538722610     0.7952971475
Bq        -4.2878998461     0.1374721920     1.6057534195
Bq        -4.2843598903    -0.2973549780     0.7052464506
Bq        -4.2861298682    -0.0799413930     1.1554999350
Bq        -4.2863129315     0.0535927167     1.2020682509
Bq        -4.2856049403    -0.0333727173     1.0219668571
Bq        -4.2866669271     0.0970754337     1.2921189478
Bq        -4.2852509448    -0.0768554343     0.9319161602
Bq        -4.2870209226     0.1405581507     1.3821696447
Bq        -4.2848969492    -0.1203381513     0.8418654634
Bq        -4.2873749182     0.1840408677     1.4722203415
Bq        -4.2845429536    -0.1638208683     0.7518147665
Bq        -4.2877289138     0.2275235847     1.5622710384
Bq        -4.2841889580    -0.2073035853     0.6617640696
Bq        -4.2859589359     0.0101099997     1.1120175540
Bq        -4.2861419992     0.1436441094     1.1585858699
Bq        -4.2854340081     0.0566786753     0.9784844761
Bq        -4.2864959948     0.1871268264     1.2486365667
Bq        -4.2850800125     0.0131959583     0.8884337792
Bq        -4.2868499904     0.2306095434     1.3386872636
Bq        -4.2847260169    -0.0302867587     0.7983830823
Bq        -4.2872039859     0.2740922604     1.4287379605
Bq        -4.2843720213    -0.0737694757     0.7083323854
Bq        -4.2875579815     0.3175749774     1.5187886574
Bq        -4.2840180258    -0.1172521927     0.6182816886
Bq        -4.2857880036     0.1001613924     1.0685351730
Bq        -4.2859710669     0.2336955020     1.1151034888
Bq        -4.2852630758     0.1467300680     0.9350020951
Bq        -4.2863250625     0.2771782190     1.2051541857
Bq        -4.2849090802     0.1032473510     0.8449513982
Bq        -4.2866790581     0.3206609360     1.2952048826
Bq        -4.2845550846     0.0597646340     0.7549007013
Bq        -4.2870330537     0.3641436530     1.3852555795
Bq        -4.2842010891     0.0162819170     0.6648500044
Bq        -4.2873870492     0.4076263700     1.4753062764
Bq        -4.2838470935    -0.0272008000     0.5747993075
Bq        -4.2856170714     0.1902127850     1.0250527919
Bq        -4.2858001347     0.3237468947     1.0716211078
Bq        -4.2850921435     0.2367814607     0.8915197140
Bq        -4.2861541302     0.3672296117     1.1616718047
Bq        -4.2847381479     0.1932987437     0.8014690171
Bq        -4.2865081258     0.4107123287     1.2517225016
Bq        -4.2843841524     0.1498160267     0.7114183203
Bq        -4.2868621214     0.4541950457     1.3417731984
Bq        -4.2840301568     0.1063333097     0.6213676234
Bq        -4.2872161170     0.4976777627     1.4318238953
Bq        -4.2836761612     0.0628505927     0.5313169265
Bq        -4.2854461391     0.2802641777     0.9815704109
Bq        -4.2856292024     0.4137982874     1.0281387268
Bq        -4.2849212112     0.3268328534     0.8480373330
Bq        -4.2859831980     0.4572810044     1.1181894236
Bq        -4.2845672157     0.2833501364     0.7579866361
Bq        -4.2863371935     0.5007637214     1.2082401205
Bq        -4.2842132201     0.2398674194     0.6679359392
Bq        -4.2866911891     0.5442464384     1.2982908174
Bq        -4.2838592245     0.1963847023     0.5778852424
Bq        -4.2870451847     0.5877291554     1.3883415143
Bq        -4.2835052289     0.1529019853     0.4878345455
Bq        -4.2852752068     0.3703155704     0.9380880299
Bq        -4.2854582701     0.5038496800     0.9846563457
Bq        -4.2847502790     0.4168842460     0.8045549520
Bq        -4.2858122657     0.5473323970     1.0747070426
Bq        -4.2843962834     0.3734015290     0.7145042551
Bq        -4.2861662613     0.5908151140     1.1647577395
Bq        -4.2840422878     0.3299188120     0.6244535582
Bq        -4.2865202568     0.6342978311     1.2548084364
Bq        -4.2836882922     0.2864360950     0.5344028613
Bq        -4.2868742524     0.6777805481     1.3448591333
Bq        -4.2833342967     0.2429533780     0.4443521644
Bq        -4.2851042745     0.4603669630     0.8946056488
Bq        -4.2852873378     0.5939010727     0.9411739647
Bq        -4.2845793467     0.5069356387     0.7610725709
Bq        -4.2856413334     0.6373837897     1.0312246616
Bq        -4.2842253511     0.4634529217     0.6710218741
Bq        -4.2859953290     0.6808665067     1.1212753585
Bq        -4.2838713555     0.4199702047     0.5809711772
Bq        -4.2863493246     0.7243492237     1.2113260553
Bq        -4.2835173600     0.3764874877     0.4909204803
Bq        -4.2867033201     0.7678319407     1.3013767522
Bq        -4.2831633644     0.3330047707     0.4008697834
Bq        -4.2849333423     0.5504183557     0.8511232678
Bq        -4.2851164056     0.6839524654     0.8976915837
Bq        -4.2844084144     0.5969870314     0.7175901899
Bq        -4.2854704011     0.7274351824     0.9877422805
Bq        -4.2840544188     0.5535043144     0.6275394930
Bq        -4.2858243967     0.7709178994     1.0777929774
Bq        -4.2837004233     0.5100215974     0.5374887961
Bq        -4.2861783923     0.8144006164     1.1678436743
Bq        -4.2833464277     0.4665388804     0.4474380993
Bq        -4.2865323879     0.8578833334     1.2578943712
Bq        -4.2829924321     0.4230561634     0.3573874024
Bq        -4.2847624100     0.6404697484     0.8076408868
Bq        -4.2849454733     0.7740038581     0.8542092026
Bq        -4.2842374821     0.6870384240     0.6741078089
Bq        -4.2852994689     0.8174865751     0.9442598995
Bq        -4.2838834866     0.6435557070     0.5840571120
Bq        -4.2856534644     0.8609692921     1.0343105964
Bq        -4.2835294910     0.6000729900     0.4940064151
Bq        -4.2860074600     0.9044520091     1.1243612933
Bq        -4.2831754954     0.5565902730     0.4039557182
Bq        -4.2863614556     0.9479347261     1.2144119902
Bq        -4.2828214998     0.5131075560     0.3139050213
Bq        -4.2845914777     0.7305211410     0.7641585058
Bq        -4.2847745410     0.8640552507     0.8107268216
Bq        -4.2840665499     0.7770898167     0.6306254278
Bq        -4.2851285366     0.9075379677     0.9007775185
Bq        -4.2837125543     0.7336070997     0.5405747310
Bq        -4.2854825322     0.9510206847     0.9908282154
Bq        -4.2833585587     0.6901243827     0.4505240341
Bq        -4.2858365277     0.9945034017     1.0808789122
Bq        -4.2830045631     0.6466416657     0.3604733372
Bq        -4.2861905233     1.0379861187     1.1709296091
Bq        -4.2826505676     0.6031589487     0.2704226403
Bq        -4.2844205454     0.8205725337     0.7206761247
Bq        -4.2846036087     0.9541066434     0.7672444406
Bq        -4.2838956176     0.8671412094     0.5871430468
Bq        -4.2849576043     0.9975893604     0.8572951375
Bq        -4.2835416220     0.8236584924     0.4970923499
Bq        -4.2853115999     1.0410720774     0.9473458343
Bq        -4.2831876264     0.7801757754     0.4070416530
Bq        -4.2856655955     1.0845547944     1.0373965312
Bq        -4.2828336309     0.7366930584     0.3169909562
Bq        -4.2860195910     1.1280375114     1.1274472281
Bq        -4.2824796353     0.6932103414     0.2269402593
Bq        -4.2842496132     0.9106239264     0.6771937437
Bq        -4.2844326765     1.0441580361     0.7237620595
Bq        -4.2837246853     0.9571926021     0.5436606658
Bq        -4.2847866720     1.0876407531     0.8138127564
Bq        -4.2833706897     0.9137098850     0.4536099689
Bq        -4.2851406676     1.1311234701     0.9038634533
Bq        -4.2830166942     0.8702271680     0.3635592720
Bq        -4.2854946632     1.1746061871     0.9939141502
Bq        -4.2826626986     0.8267444510     0.2735085751
Bq        -4.2858486588     1.2180889041     1.0839648471
Bq        -4.2823087030     0.7832617340     0.1834578782
Bq        -4.2840786809     1.0006753191     0.6337113627
Bq        -4.2842617442     1.1342094287     0.6802796785
Bq        -4.2835537530     1.0472439947     0.5001782847
Bq        -4.2846157398     1.1776921457     0.7703303754
Bq        -4.2831997575     1.0037612777     0.4101275879

1
2
3
4
5
6
7
8
9
10
11
12
13
14
15
16
17
18
19
20
21
22
23
24
25
26
27
28
29
30
31
32
33
34
35
36
37
38
39
40
41
42
43
44
45
46
47
48
49
50
51
52
53
54
55
56
57
58
59
60
61
62
63
64
65
66
67
68
69
70
71
72
73
74
75
76
77
78
79
80
81
82
83
84
85
86
87
88
89
90
91
92
93
94
95
96
97
98
99
100
101
102
103
104
105
106
107
108
109
110
111
112
113
114
115
116
117
118
119
120
121
122
123
124
125
126
127
128
129
130
131
132
133
134
135
136
137
138
139
140
141
142
143
144
145
146
147
148
149
150
151
152
153
154
155
156
157
158
159
160
161
162
163
164
165
166
167
168
169
170
171
172
173
174
175
176
177
178
179
180
181
182
183
184
185
186
187
188
189
190
191
192
193
194
195
196
197
198
199
200
201
202
203
204
205
206
207
208
209
210
211
212
213
214
215
216
217
218
219
220
221
222
223
224
225
226
227
228
229
230
231
232
233
234
235
236

