%nproc=8
%mem=1000MB
# rb3lyp/6-311+g** NMR geom=connectivity

Title

0 1
C    -4.0500558   -0.5771862    0.8136712
H    -5.0263804   -1.0082727    1.0024760
C    -3.9381552    0.6617804    0.2400876
H    -4.8252424    1.2338890   -0.0111295
C    -2.6768410    1.2433246    0.0057578
C    -1.4974121    0.5051527    0.2848253
C    -1.6508332   -0.7338728    0.9404026
H    -0.7713646   -1.2730967    1.2633753
C    -2.8898548   -1.2624035    1.1994307
H    -2.9683706   -2.2124563    1.7152676
C    -2.5773185    2.5963696   -0.4192930
H    -3.4870728    3.1412239   -0.6474055
C    -1.3741895    3.2147896   -0.4364030
H    -1.2997315    4.2742019   -0.6578144
C    -0.1719488    2.4994090   -0.1734588
C    -0.2043917    1.1018437    0.0192689
C     1.0513491    3.2042560   -0.0676222
H     1.0427344    4.2819499   -0.1896997
C     2.1942091    2.5487446    0.2579577
H     3.1168527    3.0912848    0.4334727
C     2.2216473    1.1336562    0.2934990
C     1.0486931    0.3945528    0.0302412
C     3.4483363    0.4614633    0.5573939
H     4.3095794    1.0606054    0.8334846
C     3.5427346   -0.8855926    0.4749463
H     4.4731467   -1.3939704    0.7038822
C     2.4490052   -1.6474447   -0.0196319
C     1.2150704   -1.0057258   -0.3013573
C     0.2531113   -1.7434440   -1.0216591
H    -0.6541356   -1.2535051   -1.3462847
C     0.4494193   -3.0628597   -1.3413779
H    -0.3083162   -3.5944309   -1.9054060
C     1.6251726   -3.7207967   -0.9552541
H     1.7670048   -4.7687404   -1.1927019
C     2.6109872   -3.0144177   -0.3183050
H     3.5525612   -3.4902813   -0.0646367
Bq         4.1389678542    -1.4323573886     1.1137875452
Bq         4.1903255829    -1.4039020705     0.9225999970
Bq         4.1132889899    -1.4465850476     1.2093813193
Bq         4.2160044472    -1.3896744115     0.8270062229
Bq         4.0876101256    -1.4608127066     1.3049750934
Bq         4.2416833115    -1.3754467524     0.7314124488
Bq         4.0619312613    -1.4750403656     1.4005688675
Bq         4.2673621758    -1.3612190934     0.6358186747
Bq         4.0362523969    -1.4892680247     1.4961626416
Bq         4.2930410402    -1.3469914344     0.5402249006
Bq         4.1646467185    -1.4181297295     1.0181937711
Bq         4.1352768037    -1.3333746945     1.1275280848
Bq         4.1866345323    -1.3049193765     0.9363405366
Bq         4.1095979394    -1.3476023536     1.2231218589
Bq         4.2123133967    -1.2906917174     0.8407467625
Bq         4.0839190750    -1.3618300126     1.3187156329
Bq         4.2379922610    -1.2764640584     0.7451529884
Bq         4.0582402107    -1.3760576716     1.4143094070
Bq         4.2636711253    -1.2622363994     0.6495592143
Bq         4.0325613464    -1.3902853306     1.5099031811
Bq         4.2893499896    -1.2480087404     0.5539654402
Bq         4.1609556680    -1.3191470355     1.0319343107
Bq         4.1315857531    -1.2343920005     1.1412686243
Bq         4.1829434818    -1.2059366824     0.9500810761
Bq         4.1059068888    -1.2486196595     1.2368623984
Bq         4.2086223461    -1.1917090234     0.8544873020
Bq         4.0802280245    -1.2628473185     1.3324561725
Bq         4.2343012104    -1.1774813644     0.7588935279
Bq         4.0545491602    -1.2770749776     1.4280499466
Bq         4.2599800748    -1.1632537054     0.6632997538
Bq         4.0288702959    -1.2913026366     1.5236437207
Bq         4.2856589391    -1.1490260463     0.5677059797
Bq         4.1572646175    -1.2201643415     1.0456748502
Bq         4.1278947026    -1.1354093065     1.1550091639
Bq         4.1792524313    -1.1069539884     0.9638216157
Bq         4.1022158383    -1.1496369655     1.2506029380
Bq         4.2049312956    -1.0927263294     0.8682278416
Bq         4.0765369740    -1.1638646245     1.3461967121
Bq         4.2306101599    -1.0784986703     0.7726340675
Bq         4.0508581096    -1.1780922835     1.4417904862
Bq         4.2562890242    -1.0642710113     0.6770402934
Bq         4.0251792453    -1.1923199426     1.5373842603
Bq         4.2819678885    -1.0500433523     0.5814465193
Bq         4.1535735669    -1.1211816474     1.0594153898
Bq         4.1242036521    -1.0364266124     1.1687497034
Bq         4.1755613807    -1.0079712944     0.9775621552
Bq         4.0985247878    -1.0506542714     1.2643434775
Bq         4.2012402450    -0.9937436353     0.8819683812
Bq         4.0728459234    -1.0648819305     1.3599372516
Bq         4.2269191094    -0.9795159763     0.7863746071
Bq         4.0471670591    -1.0791095895     1.4555310257
Bq         4.2525979737    -0.9652883173     0.6907808330
Bq         4.0214881948    -1.0933372485     1.5511247998
Bq         4.2782768380    -0.9510606583     0.5951870589
Bq         4.1498825164    -1.0221989534     1.0731559293
Bq         4.1205126015    -0.9374439184     1.1824902430
Bq         4.1718703302    -0.9089886003     0.9913026948
Bq         4.0948337372    -0.9516715774     1.2780840171
Bq         4.1975491945    -0.8947609413     0.8957089207
Bq         4.0691548729    -0.9658992364     1.3736777912
Bq         4.2232280588    -0.8805332823     0.8001151466
Bq         4.0434760086    -0.9801268955     1.4692715653
Bq         4.2489069232    -0.8663056232     0.7045213725
Bq         4.0177971443    -0.9943545545     1.5648653394
Bq         4.2745857875    -0.8520779642     0.6089275984
Bq         4.1461914659    -0.9232162594     1.0868964689
Bq         4.1168215510    -0.8384612243     1.1962307826
Bq         4.1681792797    -0.8100059063     1.0050432344
Bq         4.0911426867    -0.8526888834     1.2918245566
Bq         4.1938581440    -0.7957782473     0.9094494603
Bq         4.0654638224    -0.8669165424     1.3874183307
Bq         4.2195370083    -0.7815505882     0.8138556862
Bq         4.0397849580    -0.8811442014     1.4830121048
Bq         4.2452158726    -0.7673229292     0.7182619121
Bq         4.0141060937    -0.8953718605     1.5786058789
Bq         4.2708947369    -0.7530952702     0.6226681380
Bq         4.1425004153    -0.8242335653     1.1006370085
Bq         4.1131305005    -0.7394785303     1.2099713221
Bq         4.1644882291    -0.7110232123     1.0187837739
Bq         4.0874516361    -0.7537061893     1.3055650962
Bq         4.1901670934    -0.6967955532     0.9231899998
Bq         4.0617727718    -0.7679338484     1.4011588703
Bq         4.2158459578    -0.6825678942     0.8275962257
Bq         4.0360939075    -0.7821615074     1.4967526444
Bq         4.2415248221    -0.6683402352     0.7320024516
Bq         4.0104150432    -0.7963891664     1.5923464185
Bq         4.2672036864    -0.6541125761     0.6364086775
Bq         4.1388093648    -0.7252508713     1.1143775480
Bq         4.1094394499    -0.6404958363     1.2237118617
Bq         4.1607971786    -0.6120405182     1.0325243135
Bq         4.0837605856    -0.6547234953     1.3193056358
Bq         4.1864760429    -0.5978128592     0.9369305394
Bq         4.0580817213    -0.6689511543     1.4148994099
Bq         4.2121549072    -0.5835852002     0.8413367653
Bq         4.0324028570    -0.6831788134     1.5104931840
Bq         4.2378337715    -0.5693575411     0.7457429912
Bq         4.0067239926    -0.6974064724     1.6060869581
Bq         4.2635126359    -0.5551298821     0.6501492171
Bq         4.1351183143    -0.6262681772     1.1281180876
Bq         4.1057483994    -0.5415131422     1.2374524012
Bq         4.1571061280    -0.5130578242     1.0462648530
Bq         4.0800695351    -0.5557408013     1.3330461753
Bq         4.1827849924    -0.4988301652     0.9506710789
Bq         4.0543906708    -0.5699684603     1.4286399494
Bq         4.2084638567    -0.4846025061     0.8550773049
Bq         4.0287118064    -0.5841961193     1.5242337235
Bq         4.2341427210    -0.4703748471     0.7594835308
Bq         4.0030329421    -0.5984237784     1.6198274976
Bq         4.2598215853    -0.4561471881     0.6638897567
Bq         4.1314272637    -0.5272854832     1.1418586271
Bq         4.1020573489    -0.4425304482     1.2511929408
Bq         4.1534150775    -0.4140751301     1.0600053926
Bq         4.0763784845    -0.4567581072     1.3467867149
Bq         4.1790939418    -0.3998474711     0.9644116185
Bq         4.0506996202    -0.4709857663     1.4423804890
Bq         4.2047728062    -0.3856198121     0.8688178444
Bq         4.0250207559    -0.4852134253     1.5379742631
Bq         4.2304516705    -0.3713921531     0.7732240703
Bq         3.9993418916    -0.4994410843     1.6335680372
Bq         4.2561305348    -0.3571644940     0.6776302962
Bq         4.1277362132    -0.4283027892     1.1555991667
Bq         4.0983662983    -0.3435477542     1.2649334803
Bq         4.1497240270    -0.3150924361     1.0737459322
Bq         4.0726874340    -0.3577754132     1.3605272544
Bq         4.1754028913    -0.3008647771     0.9781521581
Bq         4.0470085697    -0.3720030722     1.4561210285
Bq         4.2010817556    -0.2866371181     0.8825583840
Bq         4.0213297054    -0.3862307313     1.5517148026
Bq         4.2267606199    -0.2724094590     0.7869646099
Bq         3.9956508410    -0.4004583903     1.6473085767
Bq         4.2524394843    -0.2581818000     0.6913708358
Bq         4.1240451627    -0.3293200951     1.1693397063
Bq         4.0946752478    -0.2445650601     1.2786740199
Bq         4.1460329764    -0.2161097421     1.0874864717
Bq         4.0689963835    -0.2587927192     1.3742677940
Bq         4.1717118408    -0.2018820830     0.9918926976
Bq         4.0433175191    -0.2730203782     1.4698615681
Bq         4.1973907051    -0.1876544240     0.8962989235
Bq         4.0176386548    -0.2872480372     1.5654553422
Bq         4.2230695694    -0.1734267650     0.8007051494
Bq         3.9919597905    -0.3014756962     1.6610491163
Bq         4.2487484337    -0.1591991060     0.7051113753
Bq         4.1203541121    -0.2303374011     1.1830802458
Bq         4.0909841973    -0.1455823661     1.2924145595
Bq         4.1423419259    -0.1171270480     1.1012270113
Bq         4.0653053329    -0.1598100251     1.3880083336
Bq         4.1680207902    -0.1028993890     1.0056332372
Bq         4.0396264686    -0.1740376842     1.4836021077
Bq         4.1936996545    -0.0886717300     0.9100394631
Bq         4.0139476043    -0.1882653432     1.5791958818
Bq         4.2193785189    -0.0744440710     0.8144456890
Bq         3.9882687400    -0.2024930022     1.6747896558
Bq         4.2450573832    -0.0602164119     0.7188519149
Bq         4.1166630616    -0.1313547071     1.1968207854
Bq         4.0872931467    -0.0465996721     1.3061550990
Bq         4.1386508754    -0.0181443540     1.1149675508
Bq         4.0616142824    -0.0608273311     1.4017488731
Bq         4.1643297397    -0.0039166950     1.0193737767
Bq         4.0359354181    -0.0750549901     1.4973426472
Bq         4.1900086040     0.0103109641     0.9237800026
Bq         4.0102565538    -0.0892826491     1.5929364213
Bq         4.2156874683     0.0245386231     0.8281862286
Bq         3.9845776894    -0.1035103082     1.6885301954
Bq         4.2413663327     0.0387662821     0.7325924545
Bq         4.1129720110    -0.0323720130     1.2105613249
Bq         4.0836020962     0.0523830220     1.3198956386
Bq         4.1349598248     0.0808383400     1.1287080904
Bq         4.0579232319     0.0381553629     1.4154894127
Bq         4.1606386892     0.0950659991     1.0331143163
Bq         4.0322443675     0.0239277039     1.5110831868
Bq         4.1863175535     0.1092936581     0.9375205422
Bq         4.0065655032     0.0097000449     1.6066769609
Bq         4.2119964178     0.1235213171     0.8419267681
Bq         3.9808866389    -0.0045276141     1.7022707350
Bq         4.2376752821     0.1377489761     0.7463329940
Bq         4.1092809605     0.0666106810     1.2243018645
Bq         4.0799110457     0.1513657160     1.3336361781
Bq         4.1312687743     0.1798210341     1.1424486300
Bq         4.0542321813     0.1371380570     1.4292299522
Bq         4.1569476386     0.1940486931     1.0468548559
Bq         4.0285533170     0.1229103980     1.5248237263
Bq         4.1826265029     0.2082763521     0.9512610818
Bq         4.0028744527     0.1086827389     1.6204175004
Bq         4.2083053673     0.2225040112     0.8556673077
Bq         3.9771955884     0.0944550799     1.7160112745
Bq         4.2339842316     0.2367316702     0.7600735336
Bq         4.1055899100     0.1655933750     1.2380424040
Bq         4.0762199951     0.2503484100     1.3473767177
Bq         4.1275777238     0.2788037281     1.1561891695
Bq         4.0505411308     0.2361207510     1.4429704918
Bq         4.1532565881     0.2930313871     1.0605953954
Bq         4.0248622665     0.2218930920     1.5385642659
Bq         4.1789354524     0.3072590462     0.9650016213
Bq         3.9991834021     0.2076654330     1.6341580400
Bq         4.2046143167     0.3214867052     0.8694078472
Bq         3.9735045378     0.1934377739     1.7297518141
Bq         4.2302931811     0.3357143642     0.7738140731
Bq         4.1018988594     0.2645760691     1.2517829436
Bq         4.0725289446     0.3493311041     1.3611172573
Bq         4.1238866732     0.3777864221     1.1699297091

1
2
3
4
5
6
7
8
9
10
11
12
13
14
15
16
17
18
19
20
21
22
23
24
25
26
27
28
29
30
31
32
33
34
35
36
37
38
39
40
41
42
43
44
45
46
47
48
49
50
51
52
53
54
55
56
57
58
59
60
61
62
63
64
65
66
67
68
69
70
71
72
73
74
75
76
77
78
79
80
81
82
83
84
85
86
87
88
89
90
91
92
93
94
95
96
97
98
99
100
101
102
103
104
105
106
107
108
109
110
111
112
113
114
115
116
117
118
119
120
121
122
123
124
125
126
127
128
129
130
131
132
133
134
135
136
137
138
139
140
141
142
143
144
145
146
147
148
149
150
151
152
153
154
155
156
157
158
159
160
161
162
163
164
165
166
167
168
169
170
171
172
173
174
175
176
177
178
179
180
181
182
183
184
185
186
187
188
189
190
191
192
193
194
195
196
197
198
199
200
201
202
203
204
205
206
207
208
209
210
211
212
213
214
215
216
217
218
219
220
221
222
223
224
225
226
227
228
229
230
231
232
233
234
235
236

