%nproc=8
%mem=1000MB
# rb3lyp/6-311+g** NMR geom=connectivity

Title

0 1
C    -4.0500558   -0.5771862    0.8136712
H    -5.0263804   -1.0082727    1.0024760
C    -3.9381552    0.6617804    0.2400876
H    -4.8252424    1.2338890   -0.0111295
C    -2.6768410    1.2433246    0.0057578
C    -1.4974121    0.5051527    0.2848253
C    -1.6508332   -0.7338728    0.9404026
H    -0.7713646   -1.2730967    1.2633753
C    -2.8898548   -1.2624035    1.1994307
H    -2.9683706   -2.2124563    1.7152676
C    -2.5773185    2.5963696   -0.4192930
H    -3.4870728    3.1412239   -0.6474055
C    -1.3741895    3.2147896   -0.4364030
H    -1.2997315    4.2742019   -0.6578144
C    -0.1719488    2.4994090   -0.1734588
C    -0.2043917    1.1018437    0.0192689
C     1.0513491    3.2042560   -0.0676222
H     1.0427344    4.2819499   -0.1896997
C     2.1942091    2.5487446    0.2579577
H     3.1168527    3.0912848    0.4334727
C     2.2216473    1.1336562    0.2934990
C     1.0486931    0.3945528    0.0302412
C     3.4483363    0.4614633    0.5573939
H     4.3095794    1.0606054    0.8334846
C     3.5427346   -0.8855926    0.4749463
H     4.4731467   -1.3939704    0.7038822
C     2.4490052   -1.6474447   -0.0196319
C     1.2150704   -1.0057258   -0.3013573
C     0.2531113   -1.7434440   -1.0216591
H    -0.6541356   -1.2535051   -1.3462847
C     0.4494193   -3.0628597   -1.3413779
H    -0.3083162   -3.5944309   -1.9054060
C     1.6251726   -3.7207967   -0.9552541
H     1.7670048   -4.7687404   -1.1927019
C     2.6109872   -3.0144177   -0.3183050
H     3.5525612   -3.4902813   -0.0646367
Bq         1.7846642145     4.0602213058     1.0717129379
Bq         1.9294237449     4.0110864550     0.0834667920
Bq         1.8570439797     4.0356538804     0.5775898650
Bq         1.8432801606     4.1404465808     0.6715528748
Bq         1.8722320667     4.1306196107     0.4739036456
Bq         1.8288042075     4.1453600659     0.7703774894
Bq         1.8867080197     4.1257061256     0.3750790310
Bq         1.8143282545     4.1502735510     0.8692021039
Bq         1.9011839727     4.1207926405     0.2762544164
Bq         1.7998523014     4.1551870361     0.9680267185
Bq         1.9156599258     4.1158791554     0.1774298018
Bq         1.7853763484     4.1601005212     1.0668513331
Bq         1.9301358788     4.1109656703     0.0786051873
Bq         1.8577561136     4.1355330958     0.5727282602
Bq         1.8439922945     4.2403257962     0.6666912700
Bq         1.8729442006     4.2304988260     0.4690420408
Bq         1.8295163415     4.2452392813     0.7655158846
Bq         1.8874201536     4.2255853410     0.3702174263
Bq         1.8150403884     4.2501527664     0.8643404992
Bq         1.9018961067     4.2206718559     0.2713928117
Bq         1.8005644354     4.2550662515     0.9631651138
Bq         1.9163720597     4.2157583708     0.1725681971
Bq         1.7860884823     4.2599797365     1.0619897283
Bq         1.9308480128     4.2108448857     0.0737435825
Bq         1.8584682476     4.2354123111     0.5678666554
Bq         1.8447044285     4.3402050116     0.6618296652
Bq         1.8736563345     4.3303780414     0.4641804361
Bq         1.8302284754     4.3451184967     0.7606542798
Bq         1.8881322876     4.3254645563     0.3653558215
Bq         1.8157525224     4.3500319818     0.8594788944
Bq         1.9026082406     4.3205510713     0.2665312069
Bq         1.8012765693     4.3549454668     0.9583035090
Bq         1.9170841937     4.3156375862     0.1677065923
Bq         1.7868006163     4.3598589519     1.0571281236
Bq         1.9315601467     4.3107241011     0.0688819777
Bq         1.8591803815     4.3352915265     0.5630050507
Bq         1.9080418552    -0.6537557573     0.9194033625
Bq         1.9369937613    -0.6635827274     0.7217541333
Bq         1.8935659022    -0.6488422722     1.0182279771
Bq         1.9514697144    -0.6684962125     0.6229295187
Bq         1.8790899492    -0.6439287871     1.1170525916
Bq         1.9659456674    -0.6734096976     0.5241049041
Bq         1.8646139961    -0.6390153020     1.2158772062
Bq         1.9804216205    -0.6783231827     0.4252802896
Bq         1.8501380431    -0.6341018169     1.3147018208
Bq         1.9948975735    -0.6832366678     0.3264556750
Bq         1.9225178083    -0.6586692423     0.8205787479
Bq         1.9087539892    -0.5538765419     0.9145417577
Bq         1.9377058953    -0.5637035121     0.7168925285
Bq         1.8942780361    -0.5489630568     1.0133663723
Bq         1.9521818483    -0.5686169971     0.6180679140
Bq         1.8798020831    -0.5440495717     1.1121909869
Bq         1.9666578014    -0.5735304822     0.5192432994
Bq         1.8653261301    -0.5391360866     1.2110156015
Bq         1.9811337544    -0.5784439673     0.4204186848
Bq         1.8508501770    -0.5342226016     1.3098402160
Bq         1.9956097074    -0.5833574524     0.3215940702
Bq         1.9232299422    -0.5587900270     0.8157171431
Bq         1.9094661231    -0.4539973265     0.9096801529
Bq         1.9384180292    -0.4638242967     0.7120309238
Bq         1.8949901701    -0.4490838414     1.0085047675
Bq         1.9528939823    -0.4687377818     0.6132063092
Bq         1.8805142170    -0.4441703563     1.1073293821
Bq         1.9673699353    -0.4736512668     0.5143816946
Bq         1.8660382640    -0.4392568713     1.2061539967
Bq         1.9818458883    -0.4785647519     0.4155570800
Bq         1.8515623109    -0.4343433862     1.3049786113
Bq         1.9963218414    -0.4834782370     0.3167324654
Bq         1.9239420762    -0.4589108116     0.8108555384
Bq         1.9101782571    -0.3541181111     0.9048185482
Bq         1.9391301632    -0.3639450813     0.7071693190
Bq         1.8957023040    -0.3492046261     1.0036431628
Bq         1.9536061162    -0.3688585664     0.6083447044
Bq         1.8812263510    -0.3442911410     1.1024677773
Bq         1.9680820692    -0.3737720515     0.5095200898
Bq         1.8667503979    -0.3393776559     1.2012923919
Bq         1.9825580223    -0.3786855365     0.4106954753
Bq         1.8522744449    -0.3344641708     1.3001170065
Bq         1.9970339753    -0.3835990216     0.3118708607
Bq         1.9246542101    -0.3590315962     0.8059939336
Bq         1.9108903910    -0.2542388958     0.8999569434
Bq         1.9398422971    -0.2640658659     0.7023077142
Bq         1.8964144380    -0.2493254107     0.9987815580
Bq         1.9543182501    -0.2689793510     0.6034830997
Bq         1.8819384849    -0.2444119256     1.0976061726
Bq         1.9687942032    -0.2738928361     0.5046584851
Bq         1.8674625319    -0.2394984405     1.1964307872
Bq         1.9832701562    -0.2788063212     0.4058338705
Bq         1.8529865788    -0.2345849554     1.2952554017
Bq         1.9977461093    -0.2837198063     0.3070092559
Bq         1.9253663441    -0.2591523808     0.8011323288
Bq         1.9116025249    -0.1543596804     0.8950953386
Bq         1.9405544310    -0.1641866505     0.6974461095
Bq         1.8971265719    -0.1494461953     0.9939199532
Bq         1.9550303841    -0.1691001356     0.5986214949
Bq         1.8826506189    -0.1445327102     1.0927445678
Bq         1.9695063371    -0.1740136207     0.4997968803
Bq         1.8681746658    -0.1396192251     1.1915691824
Bq         1.9839822902    -0.1789271058     0.4009722657
Bq         1.8536987128    -0.1347057400     1.2903937970
Bq         1.9984582432    -0.1838405909     0.3021476511
Bq         1.9260784780    -0.1592731655     0.7962707241
Bq         1.9123146589    -0.0544804650     0.8902337339
Bq         1.9412665650    -0.0643074352     0.6925845047
Bq         1.8978387058    -0.0495669799     0.9890583485
Bq         1.9557425180    -0.0692209203     0.5937598901
Bq         1.8833627528    -0.0446534948     1.0878829630
Bq         1.9702184711    -0.0741344053     0.4949352755
Bq         1.8688867998    -0.0397400098     1.1867075776
Bq         1.9846944241    -0.0790478904     0.3961106610
Bq         1.8544108467    -0.0348265247     1.2855321922
Bq         1.9991703772    -0.0839613755     0.2972860464
Bq         1.9267906119    -0.0593939501     0.7914091193
Bq         1.9130267928     0.0453987504     0.8853721291
Bq         1.9419786989     0.0355717802     0.6877228999
Bq         1.8985508398     0.0503122355     0.9841967437
Bq         1.9564546520     0.0306582951     0.5888982854
Bq         1.8840748867     0.0552257205     1.0830213583
Bq         1.9709306050     0.0257448100     0.4900736708
Bq         1.8695989337     0.0601392056     1.1818459729
Bq         1.9854065581     0.0208313250     0.3912490562
Bq         1.8551229807     0.0650526907     1.2806705874
Bq         1.9998825111     0.0159178399     0.2924244416
Bq         1.9275027459     0.0404852653     0.7865475145
Bq         1.9137389268     0.1452779658     0.8805105243
Bq         1.9426908329     0.1354509956     0.6828612952
Bq         1.8992629737     0.1501914508     0.9793351389
Bq         1.9571667859     0.1305375105     0.5840366806
Bq         1.8847870207     0.1551049359     1.0781597535
Bq         1.9716427390     0.1256240254     0.4852120660
Bq         1.8703110676     0.1600184210     1.1769843681
Bq         1.9861186920     0.1207105403     0.3863874514
Bq         1.8558351146     0.1649319061     1.2758089827
Bq         2.0005946450     0.1157970553     0.2875628368
Bq         1.9282148798     0.1403644807     0.7816859098
Bq         1.9144510607     0.2451571811     0.8756489196
Bq         1.9434029668     0.2353302110     0.6779996904
Bq         1.8999751077     0.2500706662     0.9744735342
Bq         1.9578789198     0.2304167259     0.5791750758
Bq         1.8854991546     0.2549841513     1.0732981487
Bq         1.9723548729     0.2255032408     0.4803504612
Bq         1.8710232016     0.2598976364     1.1721227633
Bq         1.9868308259     0.2205897557     0.3815258467
Bq         1.8565472485     0.2648111215     1.2709473779
Bq         2.0013067790     0.2156762706     0.2827012321
Bq         1.9289270138     0.2402436960     0.7768243050
Bq         1.9151631947     0.3450363965     0.8707873148
Bq         1.9441151007     0.3352094263     0.6731380856
Bq         1.9006872416     0.3499498816     0.9696119294
Bq         1.9585910538     0.3302959413     0.5743134711
Bq         1.8862112886     0.3548633667     1.0684365440
Bq         1.9730670068     0.3253824562     0.4754888565
Bq         1.8717353355     0.3597768518     1.1672611586
Bq         1.9875429599     0.3204689711     0.3766642419
Bq         1.8572593825     0.3646903368     1.2660857731
Bq         2.0020189129     0.3155554860     0.2778396273
Bq         1.9296391477     0.3401229114     0.7719627002
Bq         1.9158753286     0.4449156119     0.8659257100
Bq         1.9448272347     0.4350886417     0.6682764809
Bq         1.9013993756     0.4498290970     0.9647503246
Bq         1.9593031877     0.4301751566     0.5694518663
Bq         1.8869234225     0.4547425820     1.0635749392
Bq         1.9737791408     0.4252616716     0.4706272517
Bq         1.8724474695     0.4596560671     1.1623995538
Bq         1.9882550938     0.4203481865     0.3718026371
Bq         1.8579715164     0.4645695522     1.2612241684
Bq         2.0027310469     0.4154347014     0.2729780225
Bq         1.9303512816     0.4400021268     0.7671010955
Bq         1.9165874625     0.5447948273     0.8610641053
Bq         1.9455393686     0.5349678571     0.6634148761
Bq         1.9021115095     0.5497083123     0.9598887199
Bq         1.9600153217     0.5300543720     0.5645902615
Bq         1.8876355565     0.5546217974     1.0587133344
Bq         1.9744912747     0.5251408869     0.4657656469
Bq         1.8731596034     0.5595352825     1.1575379490
Bq         1.9889672278     0.5202274018     0.3669410324
Bq         1.8586836504     0.5644487676     1.2563625636
Bq         2.0034431808     0.5153139168     0.2681164178
Bq         1.9310634156     0.5398813422     0.7622394907
Bq         1.9172995965     0.6446740426     0.8562025005
Bq         1.9462515026     0.6348470725     0.6585532713
Bq         1.9028236434     0.6495875277     0.9550271151
Bq         1.9607274556     0.6299335874     0.5597286568
Bq         1.8883476904     0.6545010128     1.0538517297
Bq         1.9752034087     0.6250201023     0.4609040422
Bq         1.8738717374     0.6594144979     1.1526763443
Bq         1.9896793617     0.6201066172     0.3620794276
Bq         1.8593957843     0.6643279830     1.2515009589
Bq         2.0041553147     0.6151931321     0.2632548130
Bq         1.9317755495     0.6397605576     0.7573778859
Bq         1.9180117304     0.7445532580     0.8513408957
Bq         1.9469636365     0.7347262878     0.6536916666
Bq         1.9035357774     0.7494667431     0.9501655103
Bq         1.9614395896     0.7298128028     0.5548670520
Bq         1.8890598243     0.7543802282     1.0489901249
Bq         1.9759155426     0.7248993177     0.4560424374
Bq         1.8745838713     0.7592937133     1.1478147395
Bq         1.9903914956     0.7199858326     0.3572178228
Bq         1.8601079182     0.7642071983     1.2466393541
Bq         2.0048674487     0.7150723475     0.2583932082

1
2
3
4
5
6
7
8
9
10
11
12
13
14
15
16
17
18
19
20
21
22
23
24
25
26
27
28
29
30
31
32
33
34
35
36
37
38
39
40
41
42
43
44
45
46
47
48
49
50
51
52
53
54
55
56
57
58
59
60
61
62
63
64
65
66
67
68
69
70
71
72
73
74
75
76
77
78
79
80
81
82
83
84
85
86
87
88
89
90
91
92
93
94
95
96
97
98
99
100
101
102
103
104
105
106
107
108
109
110
111
112
113
114
115
116
117
118
119
120
121
122
123
124
125
126
127
128
129
130
131
132
133
134
135
136
137
138
139
140
141
142
143
144
145
146
147
148
149
150
151
152
153
154
155
156
157
158
159
160
161
162
163
164
165
166
167
168
169
170
171
172
173
174
175
176
177
178
179
180
181
182
183
184
185
186
187
188
189
190
191
192
193
194
195
196
197
198
199
200
201
202
203
204
205
206
207
208
209
210
211
212
213
214
215
216
217
218
219
220
221
222
223
224
225
226
227
228
229
230
231
232
233
234
235
236

