%nproc=8
%mem=1000MB
# rb3lyp/6-311+g** NMR geom=connectivity

Title

0 1
C    -4.0500558   -0.5771862    0.8136712
H    -5.0263804   -1.0082727    1.0024760
C    -3.9381552    0.6617804    0.2400876
H    -4.8252424    1.2338890   -0.0111295
C    -2.6768410    1.2433246    0.0057578
C    -1.4974121    0.5051527    0.2848253
C    -1.6508332   -0.7338728    0.9404026
H    -0.7713646   -1.2730967    1.2633753
C    -2.8898548   -1.2624035    1.1994307
H    -2.9683706   -2.2124563    1.7152676
C    -2.5773185    2.5963696   -0.4192930
H    -3.4870728    3.1412239   -0.6474055
C    -1.3741895    3.2147896   -0.4364030
H    -1.2997315    4.2742019   -0.6578144
C    -0.1719488    2.4994090   -0.1734588
C    -0.2043917    1.1018437    0.0192689
C     1.0513491    3.2042560   -0.0676222
H     1.0427344    4.2819499   -0.1896997
C     2.1942091    2.5487446    0.2579577
H     3.1168527    3.0912848    0.4334727
C     2.2216473    1.1336562    0.2934990
C     1.0486931    0.3945528    0.0302412
C     3.4483363    0.4614633    0.5573939
H     4.3095794    1.0606054    0.8334846
C     3.5427346   -0.8855926    0.4749463
H     4.4731467   -1.3939704    0.7038822
C     2.4490052   -1.6474447   -0.0196319
C     1.2150704   -1.0057258   -0.3013573
C     0.2531113   -1.7434440   -1.0216591
H    -0.6541356   -1.2535051   -1.3462847
C     0.4494193   -3.0628597   -1.3413779
H    -0.3083162   -3.5944309   -1.9054060
C     1.6251726   -3.7207967   -0.9552541
H     1.7670048   -4.7687404   -1.1927019
C     2.6109872   -3.0144177   -0.3183050
H     3.5525612   -3.4902813   -0.0646367
Bq         1.8019942634     0.0159178399     0.2634375238
Bq         1.7296144981     0.0404852653     0.7575605967
Bq         1.7158506790     0.1452779658     0.8515236065
Bq         1.7448025851     0.1354509956     0.6538743773
Bq         1.7013747260     0.1501914508     0.9503482211
Bq         1.7592785382     0.1305375105     0.5550497628
Bq         1.6868987729     0.1551049359     1.0491728357
Bq         1.7737544912     0.1256240254     0.4562251482
Bq         1.6724228199     0.1600184210     1.1479974503
Bq         1.7882304443     0.1207105403     0.3574005336
Bq         1.6579468669     0.1649319061     1.2468220649
Bq         1.8027063973     0.1157970553     0.2585759190
Bq         1.7303266321     0.1403644807     0.7526989919
Bq         1.7165628130     0.2451571811     0.8466620017
Bq         1.7455147191     0.2353302110     0.6490127726
Bq         1.7020868599     0.2500706662     0.9454866163
Bq         1.7599906721     0.2304167259     0.5501881580
Bq         1.6876109069     0.2549841513     1.0443112309
Bq         1.7744666252     0.2255032408     0.4513635434
Bq         1.6731349538     0.2598976364     1.1431358455
Bq         1.7889425782     0.2205897557     0.3525389288
Bq         1.6586590008     0.2648111215     1.2419604601
Bq         1.8034185312     0.2156762706     0.2537143142
Bq         1.7310387660     0.2402436960     0.7478373872
Bq         1.7172749469     0.3450363965     0.8418003970
Bq         1.7462268530     0.3352094263     0.6441511678
Bq         1.7027989939     0.3499498816     0.9406250116
Bq         1.7607028060     0.3302959413     0.5453265532
Bq         1.6883230408     0.3548633667     1.0394496262
Bq         1.7751787591     0.3253824562     0.4465019386
Bq         1.6738470878     0.3597768518     1.1382742407
Bq         1.7896547121     0.3204689711     0.3476773241
Bq         1.6593711347     0.3646903368     1.2370988553
Bq         1.8041306652     0.3155554860     0.2488527095
Bq         1.7317509000     0.3401229114     0.7429757824
Bq         1.7179870809     0.4449156119     0.8369387922
Bq         1.7469389869     0.4350886417     0.6392895630
Bq         1.7035111278     0.4498290970     0.9357634068
Bq         1.7614149400     0.4301751566     0.5404649485
Bq         1.6890351748     0.4547425820     1.0345880214
Bq         1.7758908930     0.4252616716     0.4416403339
Bq         1.6745592217     0.4596560671     1.1334126360
Bq         1.7903668461     0.4203481865     0.3428157193
Bq         1.6600832687     0.4645695522     1.2322372506
Bq         1.8048427991     0.4154347014     0.2439911047
Bq         1.7324630339     0.4400021268     0.7381141776
Bq         1.7186992148     0.5447948273     0.8320771875
Bq         1.7476511209     0.5349678571     0.6344279583
Bq         1.7042232618     0.5497083123     0.9309018020
Bq         1.7621270739     0.5300543720     0.5356033437
Bq         1.6897473087     0.5546217974     1.0297264166
Bq         1.7766030270     0.5251408869     0.4367787291
Bq         1.6752713557     0.5595352825     1.1285510312
Bq         1.7910789800     0.5202274018     0.3379541145
Bq         1.6607954026     0.5644487676     1.2273756458
Bq         1.8055549331     0.5153139168     0.2391294999
Bq         1.7331751678     0.5398813422     0.7332525729
Bq         1.7194113487     0.6446740426     0.8272155827
Bq         1.7483632548     0.6348470725     0.6295663535
Bq         1.7049353957     0.6495875277     0.9260401973
Bq         1.7628392079     0.6299335874     0.5307417389
Bq         1.6904594427     0.6545010128     1.0248648119
Bq         1.7773151609     0.6250201023     0.4319171243
Bq         1.6759834896     0.6594144979     1.1236894264
Bq         1.7917911140     0.6201066172     0.3330925098
Bq         1.6615075366     0.6643279830     1.2225140410
Bq         1.8062670670     0.6151931321     0.2342678952
Bq         1.7338873018     0.6397605576     0.7283909681
Bq         1.7201234827     0.7445532580     0.8223539779
Bq         1.7490753888     0.7347262878     0.6247047487
Bq         1.7056475296     0.7494667431     0.9211785925
Bq         1.7635513418     0.7298128028     0.5258801342
Bq         1.6911715766     0.7543802282     1.0200032071
Bq         1.7780272949     0.7248993177     0.4270555196
Bq         1.6766956235     0.7592937133     1.1188278217
Bq         1.7925032479     0.7199858326     0.3282309050
Bq         1.6622196705     0.7642071983     1.2176524363
Bq         1.8069792009     0.7150723475     0.2294062904
Bq         1.7345994357     0.7396397729     0.7235293633
Bq         1.7208356166     0.8444324734     0.8174923732
Bq         1.7497875227     0.8346055032     0.6198431440
Bq         1.7063596636     0.8493459585     0.9163169877
Bq         1.7642634758     0.8296920181     0.5210185294
Bq         1.6918837105     0.8542594436     1.0151416023
Bq         1.7787394288     0.8247785331     0.4221939148
Bq         1.6774077575     0.8591729286     1.1139662169
Bq         1.7932153818     0.8198650480     0.3233693002
Bq         1.6629318044     0.8640864137     1.2127908315
Bq         1.8076913349     0.8149515629     0.2245446856
Bq         1.7353115697     0.8395189883     0.7186677586
Bq         1.7215477506     0.9443116888     0.8126307684
Bq         1.7504996567     0.9344847186     0.6149815392
Bq         1.7070717975     0.9492251739     0.9114553830
Bq         1.7649756097     0.9295712335     0.5161569246
Bq         1.6925958445     0.9541386589     1.0102799976
Bq         1.7794515627     0.9246577484     0.4173323100
Bq         1.6781198914     0.9590521440     1.1091046121
Bq         1.7939275158     0.9197442634     0.3185076955
Bq         1.6636439384     0.9639656291     1.2079292267
Bq         1.8084034688     0.9148307783     0.2196830809
Bq         1.7360237036     0.9393982037     0.7138061538
Bq         1.7222598845     1.0441909041     0.8077691636
Bq         1.7512117906     1.0343639340     0.6101199344
Bq         1.7077839315     1.0491043892     0.9065937782
Bq         1.7656877436     1.0294504489     0.5112953199
Bq         1.6933079784     1.0540178743     1.0054183928
Bq         1.7801636967     1.0245369638     0.4124707053
Bq         1.6788320254     1.0589313594     1.1042430074
Bq         1.7946396497     1.0196234787     0.3136460907
Bq         1.6643560723     1.0638448445     1.2030676220
Bq         1.8091156028     1.0147099936     0.2148214761
Bq         1.7367358376     1.0392774191     0.7089445490
Bq         1.7229720184     1.1440701195     0.8029075589
Bq         1.7519239245     1.1342431494     0.6052583297
Bq         1.7084960654     1.1489836046     0.9017321734
Bq         1.7663998776     1.1293296643     0.5064337151
Bq         1.6940201124     1.1538970897     1.0005567880
Bq         1.7808758306     1.1244161792     0.4076091005
Bq         1.6795441593     1.1588105748     1.0993814026
Bq         1.7953517837     1.1195026941     0.3087844859
Bq         1.6650682063     1.1637240599     1.1982060172
Bq         1.8098277367     1.1145892090     0.2099598713
Bq         1.7374479715     1.1391566344     0.7040829443
Bq         1.7236841524     1.2439493349     0.7980459541
Bq         1.7526360585     1.2341223647     0.6003967249
Bq         1.7092081993     1.2488628200     0.8968705687
Bq         1.7671120115     1.2292088797     0.5015721103
Bq         1.6947322463     1.2537763051     0.9956951833
Bq         1.7815879646     1.2242953946     0.4027474957
Bq         1.6802562933     1.2586897901     1.0945197978
Bq         1.7960639176     1.2193819095     0.3039228812
Bq         1.6657803402     1.2636032752     1.1933444124
Bq         1.8105398707     1.2144684244     0.2050982666
Bq         1.7381601054     1.2390358498     0.6992213395
Bq         1.7243962863     1.3438285503     0.7931843493
Bq         1.7533481924     1.3340015801     0.5955351201
Bq         1.7099203333     1.3487420354     0.8920089639
Bq         1.7678241455     1.3290880950     0.4967105056
Bq         1.6954443802     1.3536555204     0.9908335785
Bq         1.7823000985     1.3241746099     0.3978858910
Bq         1.6809684272     1.3585690055     1.0896581931
Bq         1.7967760516     1.3192611249     0.2990612764
Bq         1.6664924742     1.3634824906     1.1884828077
Bq         1.8112520046     1.3143476398     0.2002366618
Bq         1.7388722394     1.3389150652     0.6943597347
Bq         1.7251084203     1.4437077657     0.7883227446
Bq         1.7540603264     1.4338807955     0.5906735154
Bq         1.7106324672     1.4486212507     0.8871473591
Bq         1.7685362794     1.4289673104     0.4918489008
Bq         1.6961565142     1.4535347358     0.9859719737
Bq         1.7830122325     1.4240538253     0.3930242862
Bq         1.6816805611     1.4584482209     1.0847965883
Bq         1.7974881855     1.4191403402     0.2941996716
Bq         1.6672046081     1.4633617060     1.1836212029
Bq         1.8119641385     1.4142268552     0.1953750570
Bq         1.7395843733     1.4387942806     0.6894981300
Bq         1.7258205542     1.5435869810     0.7834611398
Bq         1.7547724603     1.5337600109     0.5858119106
Bq         1.7113446012     1.5485004661     0.8822857544
Bq         1.7692484133     1.5288465258     0.4869872960
Bq         1.6968686481     1.5534139512     0.9811103690
Bq         1.7837243664     1.5239330407     0.3881626814
Bq         1.6823926951     1.5583274363     1.0799349835
Bq         1.7982003194     1.5190195556     0.2893380669
Bq         1.6679167420     1.5632409214     1.1787595981
Bq         1.8126762725     1.5141060705     0.1905134523
Bq         1.7402965073     1.5386734959     0.6846365252
Bq         1.7265326882     1.6434661964     0.7785995350
Bq         1.7554845942     1.6336392262     0.5809503058
Bq         1.7120567351     1.6483796815     0.8774241496
Bq         1.7699605473     1.6287257412     0.4821256913
Bq         1.6975807821     1.6532931666     0.9762487642
Bq         1.7844365003     1.6238122561     0.3833010767
Bq         1.6831048290     1.6582066517     1.0750733788
Bq         1.7989124534     1.6188987710     0.2844764621
Bq         1.6686288760     1.6631201367     1.1738979934
Bq         1.8133884064     1.6139852859     0.1856518475
Bq         1.7410086412     1.6385527113     0.6797749204
Bq         1.7272448221     1.7433454118     0.7737379303
Bq         1.7561967282     1.7335184416     0.5760887011
Bq         1.7127688691     1.7482588969     0.8725625448
Bq         1.7706726812     1.7286049565     0.4772640865
Bq         1.6982929160     1.7531723819     0.9713871594
Bq         1.7851486343     1.7236914715     0.3784394719
Bq         1.6838169630     1.7580858670     1.0702117740
Bq         1.7996245873     1.7187779864     0.2796148573
Bq         1.6693410099     1.7629993521     1.1690363886
Bq         1.8141005404     1.7138645013     0.1807902427
Bq         1.7417207751     1.7384319267     0.6749133157
Bq         1.7279569560     1.8432246272     0.7688763255
Bq         1.7569088621     1.8333976570     0.5712270963
Bq         1.7134810030     1.8481381122     0.8677009401
Bq         1.7713848152     1.8284841719     0.4724024817
Bq         1.6990050500     1.8530515973     0.9665255547
Bq         1.7858607682     1.8235706868     0.3735778671
Bq         1.6845290969     1.8579650824     1.0653501692
Bq         1.8003367213     1.8186572017     0.2747532526
Bq         1.6700531439     1.8628785675     1.1641747838
Bq         1.8148126743     1.8137437167     0.1759286380
Bq         1.7424329091     1.8383111421     0.6700517109

1
2
3
4
5
6
7
8
9
10
11
12
13
14
15
16
17
18
19
20
21
22
23
24
25
26
27
28
29
30
31
32
33
34
35
36
37
38
39
40
41
42
43
44
45
46
47
48
49
50
51
52
53
54
55
56
57
58
59
60
61
62
63
64
65
66
67
68
69
70
71
72
73
74
75
76
77
78
79
80
81
82
83
84
85
86
87
88
89
90
91
92
93
94
95
96
97
98
99
100
101
102
103
104
105
106
107
108
109
110
111
112
113
114
115
116
117
118
119
120
121
122
123
124
125
126
127
128
129
130
131
132
133
134
135
136
137
138
139
140
141
142
143
144
145
146
147
148
149
150
151
152
153
154
155
156
157
158
159
160
161
162
163
164
165
166
167
168
169
170
171
172
173
174
175
176
177
178
179
180
181
182
183
184
185
186
187
188
189
190
191
192
193
194
195
196
197
198
199
200
201
202
203
204
205
206
207
208
209
210
211
212
213
214
215
216
217
218
219
220
221
222
223
224
225
226
227
228
229
230
231
232
233
234
235
236

