%nproc=8
%mem=1000MB
# rb3lyp/6-311+g** NMR geom=connectivity

Title

0 1
C    -4.0500558   -0.5771862    0.8136712
H    -5.0263804   -1.0082727    1.0024760
C    -3.9381552    0.6617804    0.2400876
H    -4.8252424    1.2338890   -0.0111295
C    -2.6768410    1.2433246    0.0057578
C    -1.4974121    0.5051527    0.2848253
C    -1.6508332   -0.7338728    0.9404026
H    -0.7713646   -1.2730967    1.2633753
C    -2.8898548   -1.2624035    1.1994307
H    -2.9683706   -2.2124563    1.7152676
C    -2.5773185    2.5963696   -0.4192930
H    -3.4870728    3.1412239   -0.6474055
C    -1.3741895    3.2147896   -0.4364030
H    -1.2997315    4.2742019   -0.6578144
C    -0.1719488    2.4994090   -0.1734588
C    -0.2043917    1.1018437    0.0192689
C     1.0513491    3.2042560   -0.0676222
H     1.0427344    4.2819499   -0.1896997
C     2.1942091    2.5487446    0.2579577
H     3.1168527    3.0912848    0.4334727
C     2.2216473    1.1336562    0.2934990
C     1.0486931    0.3945528    0.0302412
C     3.4483363    0.4614633    0.5573939
H     4.3095794    1.0606054    0.8334846
C     3.5427346   -0.8855926    0.4749463
H     4.4731467   -1.3939704    0.7038822
C     2.4490052   -1.6474447   -0.0196319
C     1.2150704   -1.0057258   -0.3013573
C     0.2531113   -1.7434440   -1.0216591
H    -0.6541356   -1.2535051   -1.3462847
C     0.4494193   -3.0628597   -1.3413779
H    -0.3083162   -3.5944309   -1.9054060
C     1.6251726   -3.7207967   -0.9552541
H     1.7670048   -4.7687404   -1.1927019
C     2.6109872   -3.0144177   -0.3183050
H     3.5525612   -3.4902813   -0.0646367
Bq         2.7358596038    -2.8750257412     0.9405961427
Bq         2.9926482470    -2.7327491509    -0.0153415982
Bq         2.8642539254    -2.8038874460     0.4626272722
Bq         2.8348840105    -2.7191324110     0.5719615859
Bq         2.8862417392    -2.6906770930     0.3807740377
Bq         2.8092051462    -2.7333600701     0.6675553600
Bq         2.9119206035    -2.6764494339     0.2851802636
Bq         2.7835262819    -2.7475877291     0.7631491341
Bq         2.9375994678    -2.6622217749     0.1895864895
Bq         2.7578474176    -2.7618153881     0.8587429082
Bq         2.9632783321    -2.6479941159     0.0939927154
Bq         2.7321685532    -2.7760430471     0.9543366823
Bq         2.9889571965    -2.6337664569    -0.0016010587
Bq         2.8605628748    -2.7049047520     0.4763678118
Bq         2.8311929600    -2.6201497170     0.5857021254
Bq         2.8825506886    -2.5916943989     0.3945145773
Bq         2.8055140957    -2.6343773760     0.6812958995
Bq         2.9082295530    -2.5774667399     0.2989208032
Bq         2.7798352313    -2.6486050350     0.7768896736
Bq         2.9339084173    -2.5632390809     0.2033270291
Bq         2.7541563670    -2.6628326941     0.8724834477
Bq         2.9595872816    -2.5490114219     0.1077332550
Bq         2.7284775027    -2.6770603531     0.9680772218
Bq         2.9852661459    -2.5347837628     0.0121394809
Bq         2.8568718243    -2.6059220580     0.4901083514
Bq         2.8275019095    -2.5211670230     0.5994426650
Bq         2.8788596381    -2.4927117049     0.4082551168
Bq         2.8018230451    -2.5353946820     0.6950364391
Bq         2.9045385024    -2.4784840459     0.3126613427
Bq         2.7761441808    -2.5496223410     0.7906302132
Bq         2.9302173667    -2.4642563868     0.2170675686
Bq         2.7504653165    -2.5638500000     0.8862239873
Bq         2.9558962311    -2.4500287278     0.1214737945
Bq         2.7247864522    -2.5780776591     0.9818177614
Bq         2.9815750954    -2.4358010688     0.0258800204
Bq         2.8531807738    -2.5069393639     0.5038488909
Bq         2.8238108589    -2.4221843289     0.6131832046
Bq         2.8751685876    -2.3937290109     0.4219956564
Bq         2.7981319946    -2.4364119879     0.7087769787
Bq         2.9008474519    -2.3795013518     0.3264018823
Bq         2.7724531303    -2.4506396470     0.8043707528
Bq         2.9265263162    -2.3652736928     0.2308081082
Bq         2.7467742660    -2.4648673060     0.8999645269
Bq         2.9522051805    -2.3510460338     0.1352143341
Bq         2.7210954016    -2.4790949650     0.9955583009
Bq         2.9778840449    -2.3368183748     0.0396205600
Bq         2.8494897232    -2.4079566699     0.5175894305
Bq         2.8201198084    -2.3232016349     0.6269237441
Bq         2.8714775370    -2.2947463168     0.4357361959
Bq         2.7944409441    -2.3374292939     0.7225175182
Bq         2.8971564014    -2.2805186578     0.3401424218
Bq         2.7687620797    -2.3516569529     0.8181112923
Bq         2.9228352657    -2.2662909988     0.2445486477
Bq         2.7430832154    -2.3658846120     0.9137050664
Bq         2.9485141300    -2.2520633397     0.1489548737
Bq         2.7174043511    -2.3801122710     1.0092988405
Bq         2.9741929943    -2.2378356807     0.0533610996
Bq         2.8457986727    -2.3089739759     0.5313299700
Bq         2.8164287578    -2.2242189408     0.6406642837
Bq         2.8677864865    -2.1957636228     0.4494767355
Bq         2.7907498935    -2.2384465999     0.7362580578
Bq         2.8934653508    -2.1815359638     0.3538829614
Bq         2.7650710292    -2.2526742589     0.8318518319
Bq         2.9191442151    -2.1673083047     0.2582891873
Bq         2.7393921649    -2.2669019179     0.9274456060
Bq         2.9448230795    -2.1530806457     0.1626954132
Bq         2.7137133006    -2.2811295770     1.0230393801
Bq         2.9705019438    -2.1388529867     0.0671016391
Bq         2.8421076222    -2.2099912818     0.5450705096
Bq         2.8127377073    -2.1252362468     0.6544048232
Bq         2.8640954360    -2.0967809288     0.4632172751
Bq         2.7870588430    -2.1394639058     0.7499985973
Bq         2.8897743003    -2.0825532697     0.3676235010
Bq         2.7613799787    -2.1536915649     0.8455923714
Bq         2.9154531646    -2.0683256107     0.2720297269
Bq         2.7357011143    -2.1679192239     0.9411861455
Bq         2.9411320289    -2.0540979517     0.1764359528
Bq         2.7100222500    -2.1821468829     1.0367799196
Bq         2.9668108932    -2.0398702926     0.0808421787
Bq         2.8384165716    -2.1110085878     0.5588110491
Bq         2.8090466568    -2.0262535528     0.6681453628
Bq         2.8604043854    -1.9977982347     0.4769578146
Bq         2.7833677925    -2.0404812118     0.7637391369
Bq         2.8860832497    -1.9835705757     0.3813640405
Bq         2.7576889281    -2.0547088708     0.8593329110
Bq         2.9117621141    -1.9693429167     0.2857702664
Bq         2.7320100638    -2.0689365299     0.9549266851
Bq         2.9374409784    -1.9551152576     0.1901764923
Bq         2.7063311995    -2.0831641889     1.0505204592
Bq         2.9631198427    -1.9408875986     0.0945827182
Bq         2.8347255211    -2.0120258937     0.5725515887
Bq         2.8053556062    -1.9272708587     0.6818859024
Bq         2.8567133349    -1.8988155407     0.4906983542
Bq         2.7796767419    -1.9414985178     0.7774796765
Bq         2.8823921992    -1.8845878817     0.3951045801
Bq         2.7539978776    -1.9557261768     0.8730734505
Bq         2.9080710635    -1.8703602226     0.2995108060
Bq         2.7283190133    -1.9699538358     0.9686672246
Bq         2.9337499279    -1.8561325636     0.2039170319
Bq         2.7026401490    -1.9841814949     1.0642609987
Bq         2.9594287922    -1.8419049046     0.1083232578
Bq         2.8310344706    -1.9130431997     0.5862921283
Bq         2.8016645557    -1.8282881647     0.6956264419
Bq         2.8530222844    -1.7998328466     0.5044388937
Bq         2.7759856914    -1.8425158237     0.7912202160
Bq         2.8787011487    -1.7856051876     0.4088451196
Bq         2.7503068271    -1.8567434828     0.8868139901
Bq         2.9043800130    -1.7713775286     0.3132513455
Bq         2.7246279627    -1.8709711418     0.9824077642
Bq         2.9300588773    -1.7571498696     0.2176575714
Bq         2.6989490984    -1.8851988008     1.0780015383
Bq         2.9557377416    -1.7429222105     0.1220637974
Bq         2.8273434200    -1.8140605057     0.6000326678
Bq         2.7979735052    -1.7293054707     0.7093669815
Bq         2.8493312338    -1.7008501526     0.5181794333
Bq         2.7722946408    -1.7435331297     0.8049607556
Bq         2.8750100981    -1.6866224936     0.4225856592
Bq         2.7466157765    -1.7577607887     0.9005545297
Bq         2.9006889625    -1.6723948346     0.3269918851
Bq         2.7209369122    -1.7719884478     0.9961483038
Bq         2.9263678268    -1.6581671755     0.2313981110
Bq         2.6952580479    -1.7862161068     1.0917420779
Bq         2.9520466911    -1.6439395165     0.1358043369
Bq         2.8236523695    -1.7150778116     0.6137732074
Bq         2.7942824546    -1.6303227766     0.7231075210
Bq         2.8456401833    -1.6018674586     0.5319199728
Bq         2.7686035903    -1.6445504357     0.8187012951
Bq         2.8713190476    -1.5876397995     0.4363261988
Bq         2.7429247260    -1.6587780947     0.9142950692
Bq         2.8969979119    -1.5734121405     0.3407324247
Bq         2.7172458617    -1.6730057537     1.0098888433
Bq         2.9226767762    -1.5591844815     0.2451386506
Bq         2.6915669973    -1.6872334127     1.1054826174
Bq         2.9483556406    -1.5449568225     0.1495448765
Bq         2.8199613190    -1.6160951176     0.6275137469
Bq         2.7905914041    -1.5313400826     0.7368480606
Bq         2.8419491327    -1.5028847645     0.5456605124
Bq         2.7649125398    -1.5455677416     0.8324418347
Bq         2.8676279971    -1.4886571055     0.4500667383
Bq         2.7392336755    -1.5597954007     0.9280356088
Bq         2.8933068614    -1.4744294465     0.3544729642
Bq         2.7135548111    -1.5740230597     1.0236293829
Bq         2.9189857257    -1.4602017875     0.2588791901
Bq         2.6878759468    -1.5882507187     1.1192231570
Bq         2.9446645900    -1.4459741284     0.1632854160
Bq         2.8162702684    -1.5171124236     0.6412542865
Bq         2.7869003536    -1.4323573886     0.7505886002
Bq         2.8382580822    -1.4039020705     0.5594010520
Bq         2.7612214892    -1.4465850476     0.8461823742
Bq         2.8639369465    -1.3896744115     0.4638072779
Bq         2.7355426249    -1.4608127066     0.9417761483
Bq         2.8896158109    -1.3754467524     0.3682135038
Bq         2.7098637606    -1.4750403656     1.0373699224
Bq         2.9152946752    -1.3612190934     0.2726197297
Bq         2.6841848963    -1.4892680247     1.1329636965
Bq         2.9409735395    -1.3469914344     0.1770259556
Bq         2.8125792179    -1.4181297295     0.6549948261
Bq         2.7832093030    -1.3333746945     0.7643291397
Bq         2.8345670317    -1.3049193765     0.5731415915
Bq         2.7575304387    -1.3476023536     0.8599229138
Bq         2.8602458960    -1.2906917174     0.4775478174
Bq         2.7318515744    -1.3618300126     0.9555166879
Bq         2.8859247603    -1.2764640584     0.3819540433
Bq         2.7061727101    -1.3760576716     1.0511104620
Bq         2.9116036246    -1.2622363994     0.2863602692
Bq         2.6804938457    -1.3902853306     1.1467042361
Bq         2.9372824890    -1.2480087404     0.1907664951
Bq         2.8088881674    -1.3191470355     0.6687353656
Bq         2.7795182525    -1.2343920005     0.7780696793
Bq         2.8308759811    -1.2059366824     0.5868821311
Bq         2.7538393882    -1.2486196595     0.8736634534
Bq         2.8565548455    -1.1917090234     0.4912883570
Bq         2.7281605239    -1.2628473185     0.9692572275
Bq         2.8822337098    -1.1774813644     0.3956945829
Bq         2.7024816595    -1.2770749776     1.0648510016
Bq         2.9079125741    -1.1632537054     0.3001008088
Bq         2.6768027952    -1.2913026366     1.1604447757
Bq         2.9335914384    -1.1490260463     0.2045070347
Bq         2.8051971168    -1.2201643415     0.6824759052
Bq         2.7758272020    -1.1354093065     0.7918102188
Bq         2.8271849306    -1.1069539884     0.6006226706
Bq         2.7501483376    -1.1496369655     0.8874039929
Bq         2.8528637949    -1.0927263294     0.5050288965
Bq         2.7244694733    -1.1638646245     0.9829977670
Bq         2.8785426593    -1.0784986703     0.4094351225
Bq         2.6987906090    -1.1780922835     1.0785915411
Bq         2.9042215236    -1.0642710113     0.3138413484
Bq         2.6731117447    -1.1923199426     1.1741853152
Bq         2.9299003879    -1.0500433523     0.2182475743
Bq         2.8015060663    -1.1211816474     0.6962164447
Bq         2.7721361514    -1.0364266124     0.8055507584
Bq         2.8234938801    -1.0079712944     0.6143632102
Bq         2.7464572871    -1.0506542714     0.9011445325
Bq         2.8491727444    -0.9937436353     0.5187694361
Bq         2.7207784228    -1.0648819305     0.9967383066
Bq         2.8748516087    -0.9795159763     0.4231756620
Bq         2.6950995585    -1.0791095895     1.0923320807
Bq         2.9005304730    -0.9652883173     0.3275818879
Bq         2.6694206941    -1.0933372485     1.1879258548
Bq         2.9262093374    -0.9510606583     0.2319881138

1
2
3
4
5
6
7
8
9
10
11
12
13
14
15
16
17
18
19
20
21
22
23
24
25
26
27
28
29
30
31
32
33
34
35
36
37
38
39
40
41
42
43
44
45
46
47
48
49
50
51
52
53
54
55
56
57
58
59
60
61
62
63
64
65
66
67
68
69
70
71
72
73
74
75
76
77
78
79
80
81
82
83
84
85
86
87
88
89
90
91
92
93
94
95
96
97
98
99
100
101
102
103
104
105
106
107
108
109
110
111
112
113
114
115
116
117
118
119
120
121
122
123
124
125
126
127
128
129
130
131
132
133
134
135
136
137
138
139
140
141
142
143
144
145
146
147
148
149
150
151
152
153
154
155
156
157
158
159
160
161
162
163
164
165
166
167
168
169
170
171
172
173
174
175
176
177
178
179
180
181
182
183
184
185
186
187
188
189
190
191
192
193
194
195
196
197
198
199
200
201
202
203
204
205
206
207
208
209
210
211
212
213
214
215
216
217
218
219
220
221
222
223
224
225
226
227
228
229
230
231
232
233
234
235
236

