%nproc=8
%mem=1000MB
# rb3lyp/6-311+g** NMR geom=connectivity

Title

0 1
C    -4.0500558   -0.5771862    0.8136712
H    -5.0263804   -1.0082727    1.0024760
C    -3.9381552    0.6617804    0.2400876
H    -4.8252424    1.2338890   -0.0111295
C    -2.6768410    1.2433246    0.0057578
C    -1.4974121    0.5051527    0.2848253
C    -1.6508332   -0.7338728    0.9404026
H    -0.7713646   -1.2730967    1.2633753
C    -2.8898548   -1.2624035    1.1994307
H    -2.9683706   -2.2124563    1.7152676
C    -2.5773185    2.5963696   -0.4192930
H    -3.4870728    3.1412239   -0.6474055
C    -1.3741895    3.2147896   -0.4364030
H    -1.2997315    4.2742019   -0.6578144
C    -0.1719488    2.4994090   -0.1734588
C    -0.2043917    1.1018437    0.0192689
C     1.0513491    3.2042560   -0.0676222
H     1.0427344    4.2819499   -0.1896997
C     2.1942091    2.5487446    0.2579577
H     3.1168527    3.0912848    0.4334727
C     2.2216473    1.1336562    0.2934990
C     1.0486931    0.3945528    0.0302412
C     3.4483363    0.4614633    0.5573939
H     4.3095794    1.0606054    0.8334846
C     3.5427346   -0.8855926    0.4749463
H     4.4731467   -1.3939704    0.7038822
C     2.4490052   -1.6474447   -0.0196319
C     1.2150704   -1.0057258   -0.3013573
C     0.2531113   -1.7434440   -1.0216591
H    -0.6541356   -1.2535051   -1.3462847
C     0.4494193   -3.0628597   -1.3413779
H    -0.3083162   -3.5944309   -1.9054060
C     1.6251726   -3.7207967   -0.9552541
H     1.7670048   -4.7687404   -1.1927019
C     2.6109872   -3.0144177   -0.3183050
H     3.5525612   -3.4902813   -0.0646367
Bq        -3.9869383234    -1.4245403657     1.3617474128
Bq        -3.9901242836    -1.0331959127     2.1722036847
Bq        -3.9865843279    -1.4680230827     1.2716967159
Bq        -3.9883543057    -1.2506094977     1.7219502003
Bq        -3.9885373690    -1.1170753880     1.7685185161
Bq        -3.9878293779    -1.2040408220     1.5884171224
Bq        -3.9888913646    -1.0735926710     1.8585692130
Bq        -3.9874753823    -1.2475235390     1.4983664255
Bq        -3.9892453602    -1.0301099540     1.9486199099
Bq        -3.9871213867    -1.2910062560     1.4083157286
Bq        -3.9895993557    -0.9866272370     2.0386706068
Bq        -3.9867673912    -1.3344889731     1.3182650317
Bq        -3.9899533513    -0.9431445200     2.1287213037
Bq        -3.9864133956    -1.3779716901     1.2282143348
Bq        -3.9881833734    -1.1605581050     1.6784678193
Bq        -3.9883664367    -1.0270239954     1.7250361351
Bq        -3.9876584456    -1.1139894294     1.5449347413
Bq        -3.9887204323    -0.9835412784     1.8150868320
Bq        -3.9873044500    -1.1574721464     1.4548840445
Bq        -3.9890744279    -0.9400585614     1.9051375289
Bq        -3.9869504545    -1.2009548634     1.3648333476
Bq        -3.9894284235    -0.8965758443     1.9951882258
Bq        -3.9865964589    -1.2444375804     1.2747826507
Bq        -3.9897824190    -0.8530931273     2.0852389226
Bq        -3.9862424633    -1.2879202974     1.1847319538
Bq        -3.9880124412    -1.0705067124     1.6349854382
Bq        -3.9881955045    -0.9369726027     1.6815537541
Bq        -3.9874875133    -1.0239380367     1.5014523603
Bq        -3.9885495000    -0.8934898857     1.7716044510
Bq        -3.9871335178    -1.0674207537     1.4114016634
Bq        -3.9889034956    -0.8500071687     1.8616551478
Bq        -3.9867795222    -1.1109034707     1.3213509665
Bq        -3.9892574912    -0.8065244517     1.9517058447
Bq        -3.9864255266    -1.1543861877     1.2313002697
Bq        -3.9896114868    -0.7630417347     2.0417565416
Bq        -3.9860715310    -1.1978689047     1.1412495728
Bq        -3.9878415089    -0.9804553197     1.5915030572
Bq        -3.9880245722    -0.8469212100     1.6380713730
Bq        -3.9873165811    -0.9338866440     1.4579699793
Bq        -3.9883785678    -0.8034384930     1.7281220699
Bq        -3.9869625855    -0.9773693610     1.3679192824
Bq        -3.9887325633    -0.7599557760     1.8181727668
Bq        -3.9866085899    -1.0208520780     1.2778685855
Bq        -3.9890865589    -0.7164730590     1.9082234637
Bq        -3.9862545943    -1.0643347950     1.1878178886
Bq        -3.9894405545    -0.6729903420     1.9982741606
Bq        -3.9859005988    -1.1078175120     1.0977671917
Bq        -3.9876705766    -0.8904039270     1.5480206762
Bq        -3.9878536399    -0.7568698173     1.5945889920
Bq        -3.9871456488    -0.8438352514     1.4144875982
Bq        -3.9882076355    -0.7133871003     1.6846396889
Bq        -3.9867916532    -0.8873179684     1.3244369014
Bq        -3.9885616311    -0.6699043833     1.7746903858
Bq        -3.9864376576    -0.9308006854     1.2343862045
Bq        -3.9889156266    -0.6264216663     1.8647410827
Bq        -3.9860836621    -0.9742834024     1.1443355076
Bq        -3.9892696222    -0.5829389493     1.9547917795
Bq        -3.9857296665    -1.0177661194     1.0542848107
Bq        -3.9874996443    -0.8003525344     1.5045382951
Bq        -3.9876827076    -0.6668184247     1.5511066110
Bq        -3.9869747165    -0.7537838587     1.3710052172
Bq        -3.9880367032    -0.6233357077     1.6411573079
Bq        -3.9866207209    -0.7972665757     1.2809545203
Bq        -3.9883906988    -0.5798529907     1.7312080047
Bq        -3.9862667254    -0.8407492927     1.1909038235
Bq        -3.9887446944    -0.5363702737     1.8212587016
Bq        -3.9859127298    -0.8842320097     1.1008531266
Bq        -3.9890986899    -0.4928875567     1.9113093985
Bq        -3.9855587342    -0.9277147267     1.0108024297
Bq        -3.9873287121    -0.7103011417     1.4610559141
Bq        -3.9875117754    -0.5767670320     1.5076242299
Bq        -3.9868037842    -0.6637324660     1.3275228362
Bq        -3.9878657709    -0.5332843150     1.5976749268
Bq        -3.9864497887    -0.7072151830     1.2374721393
Bq        -3.9882197665    -0.4898015980     1.6877256237
Bq        -3.9860957931    -0.7506979000     1.1474214424
Bq        -3.9885737621    -0.4463188810     1.7777763206
Bq        -3.9857417975    -0.7941806170     1.0573707455
Bq        -3.9889277577    -0.4028361640     1.8678270175
Bq        -3.9853878019    -0.8376633340     0.9673200487
Bq        -3.9871577798    -0.6202497490     1.4175735331
Bq        -3.9873408431    -0.4867156393     1.4641418489
Bq        -3.9866328520    -0.5736810733     1.2840404552
Bq        -3.9876948387    -0.4432329223     1.5541925458
Bq        -3.9862788564    -0.6171637904     1.1939897583
Bq        -3.9880488342    -0.3997502053     1.6442432427
Bq        -3.9859248608    -0.6606465074     1.1039390614
Bq        -3.9884028298    -0.3562674883     1.7342939396
Bq        -3.9855708652    -0.7041292244     1.0138883645
Bq        -3.9887568254    -0.3127847713     1.8243446364
Bq        -3.9852168697    -0.7476119414     0.9238376676
Bq        -3.9869868475    -0.5301983563     1.3740911520
Bq        -3.9871699108    -0.3966642467     1.4206594679
Bq        -3.9864619197    -0.4836296807     1.2405580741
Bq        -3.9875239064    -0.3531815297     1.5107101648
Bq        -3.9861079241    -0.5271123977     1.1505073772
Bq        -3.9878779020    -0.3096988127     1.6007608616
Bq        -3.9857539285    -0.5705951147     1.0604566804
Bq        -3.9882318975    -0.2662160957     1.6908115585
Bq        -3.9853999330    -0.6140778317     0.9704059835
Bq        -3.9885858931    -0.2227333786     1.7808622554
Bq        -3.9850459374    -0.6575605487     0.8803552866
Bq        -3.9868159153    -0.4401469637     1.3306087710
Bq        -3.9869989786    -0.3066128540     1.3771770869
Bq        -3.9862909874    -0.3935782880     1.1970756931
Bq        -3.9873529741    -0.2631301370     1.4672277837
Bq        -3.9859369918    -0.4370610050     1.1070249962
Bq        -3.9877069697    -0.2196474200     1.5572784806
Bq        -3.9855829963    -0.4805437220     1.0169742993
Bq        -3.9880609653    -0.1761647030     1.6473291775
Bq        -3.9852290007    -0.5240264390     0.9269236024
Bq        -3.9884149608    -0.1326819860     1.7373798744
Bq        -3.9848750051    -0.5675091560     0.8368729056
Bq        -3.9866449830    -0.3500955710     1.2871263900
Bq        -3.9868280463    -0.2165614613     1.3336947058
Bq        -3.9861200551    -0.3035268953     1.1535933121
Bq        -3.9871820419    -0.1730787443     1.4237454027
Bq        -3.9857660596    -0.3470096123     1.0635426152
Bq        -3.9875360374    -0.1295960273     1.5137960996
Bq        -3.9854120640    -0.3904923293     0.9734919183
Bq        -3.9878900330    -0.0861133103     1.6038467965
Bq        -3.9850580684    -0.4339750463     0.8834412214
Bq        -3.9882440286    -0.0426305933     1.6938974933
Bq        -3.9847040728    -0.4774577634     0.7933905245
Bq        -3.9864740507    -0.2600441783     1.2436440089
Bq        -3.9866571140    -0.1265100687     1.2902123248
Bq        -3.9859491229    -0.2134755027     1.1101109310
Bq        -3.9870111096    -0.0830273517     1.3802630217
Bq        -3.9855951273    -0.2569582197     1.0200602341
Bq        -3.9873651052    -0.0395446346     1.4703137186
Bq        -3.9852411317    -0.3004409367     0.9300095373
Bq        -3.9877191007     0.0039380824     1.5603644154
Bq        -3.9848871361    -0.3439236537     0.8399588404
Bq        -3.9880730963     0.0474207994     1.6504151123
Bq        -3.9845331406    -0.3874063707     0.7499081435
Bq        -3.9863031184    -0.1699927857     1.2001616279
Bq        -3.9864861817    -0.0364586760     1.2467299438
Bq        -3.9857781906    -0.1234241100     1.0666285500
Bq        -3.9868401773     0.0070240410     1.3367806406
Bq        -3.9854241950    -0.1669068270     0.9765778531
Bq        -3.9871941729     0.0505067580     1.4268313375
Bq        -3.9850701994    -0.2103895440     0.8865271562
Bq        -3.9875481685     0.0939894750     1.5168820344
Bq        -3.9847162039    -0.2538722610     0.7964764593
Bq        -3.9879021640     0.1374721920     1.6069327313
Bq        -3.9843622083    -0.2973549780     0.7064257625
Bq        -3.9861321862    -0.0799413930     1.1566792469
Bq        -3.9863152495     0.0535927167     1.2032475627
Bq        -3.9856072583    -0.0333727173     1.0231461690
Bq        -3.9866692450     0.0970754337     1.2932982596
Bq        -3.9852532627    -0.0768554343     0.9330954721
Bq        -3.9870232406     0.1405581507     1.3833489565
Bq        -3.9848992672    -0.1203381513     0.8430447752
Bq        -3.9873772362     0.1840408677     1.4733996534
Bq        -3.9845452716    -0.1638208683     0.7529940783
Bq        -3.9877312318     0.2275235847     1.5634503503
Bq        -3.9841912760    -0.2073035853     0.6629433814
Bq        -3.9859612539     0.0101099997     1.1131968658
Bq        -3.9861443172     0.1436441094     1.1597651817
Bq        -3.9854363260     0.0566786753     0.9796637879
Bq        -3.9864983128     0.1871268264     1.2498158786
Bq        -3.9850823305     0.0131959583     0.8896130910
Bq        -3.9868523083     0.2306095434     1.3398665755
Bq        -3.9847283349    -0.0302867587     0.7995623942
Bq        -3.9872063039     0.2740922604     1.4299172723
Bq        -3.9843743393    -0.0737694757     0.7095116973
Bq        -3.9875602995     0.3175749774     1.5199679692
Bq        -3.9840203437    -0.1172521927     0.6194610004
Bq        -3.9857903216     0.1001613924     1.0697144848
Bq        -3.9859733849     0.2336955020     1.1162828007
Bq        -3.9852653938     0.1467300680     0.9361814069
Bq        -3.9863273805     0.2771782190     1.2063334975
Bq        -3.9849113982     0.1032473510     0.8461307100
Bq        -3.9866813761     0.3206609360     1.2963841944
Bq        -3.9845574026     0.0597646340     0.7560800131
Bq        -3.9870353716     0.3641436530     1.3864348913
Bq        -3.9842034070     0.0162819170     0.6660293162
Bq        -3.9873893672     0.4076263700     1.4764855882
Bq        -3.9838494115    -0.0272008000     0.5759786194
Bq        -3.9856193893     0.1902127850     1.0262321038
Bq        -3.9858024526     0.3237468947     1.0728004196
Bq        -3.9850944615     0.2367814607     0.8926990259
Bq        -3.9861564482     0.3672296117     1.1628511165
Bq        -3.9847404659     0.1932987437     0.8026483290
Bq        -3.9865104438     0.4107123287     1.2529018134
Bq        -3.9843864703     0.1498160267     0.7125976321
Bq        -3.9868644394     0.4541950457     1.3429525103
Bq        -3.9840324748     0.1063333097     0.6225469352
Bq        -3.9872184349     0.4976777627     1.4330032072
Bq        -3.9836784792     0.0628505927     0.5324962383
Bq        -3.9854484571     0.2802641777     0.9827497227
Bq        -3.9856315204     0.4137982874     1.0293180386
Bq        -3.9849235292     0.3268328534     0.8492166448
Bq        -3.9859855159     0.4572810044     1.1193687355
Bq        -3.9845695336     0.2833501364     0.7591659479
Bq        -3.9863395115     0.5007637214     1.2094194324
Bq        -3.9842155381     0.2398674194     0.6691152511
Bq        -3.9866935071     0.5442464384     1.2994701292
Bq        -3.9838615425     0.1963847023     0.5790645542
Bq        -3.9870475027     0.5877291554     1.3895208261

1
2
3
4
5
6
7
8
9
10
11
12
13
14
15
16
17
18
19
20
21
22
23
24
25
26
27
28
29
30
31
32
33
34
35
36
37
38
39
40
41
42
43
44
45
46
47
48
49
50
51
52
53
54
55
56
57
58
59
60
61
62
63
64
65
66
67
68
69
70
71
72
73
74
75
76
77
78
79
80
81
82
83
84
85
86
87
88
89
90
91
92
93
94
95
96
97
98
99
100
101
102
103
104
105
106
107
108
109
110
111
112
113
114
115
116
117
118
119
120
121
122
123
124
125
126
127
128
129
130
131
132
133
134
135
136
137
138
139
140
141
142
143
144
145
146
147
148
149
150
151
152
153
154
155
156
157
158
159
160
161
162
163
164
165
166
167
168
169
170
171
172
173
174
175
176
177
178
179
180
181
182
183
184
185
186
187
188
189
190
191
192
193
194
195
196
197
198
199
200
201
202
203
204
205
206
207
208
209
210
211
212
213
214
215
216
217
218
219
220
221
222
223
224
225
226
227
228
229
230
231
232
233
234
235
236

