%nproc=8
%mem=1000MB
# rb3lyp/6-311+g** NMR geom=connectivity

Title

0 1
C    -4.0500558   -0.5771862    0.8136712
H    -5.0263804   -1.0082727    1.0024760
C    -3.9381552    0.6617804    0.2400876
H    -4.8252424    1.2338890   -0.0111295
C    -2.6768410    1.2433246    0.0057578
C    -1.4974121    0.5051527    0.2848253
C    -1.6508332   -0.7338728    0.9404026
H    -0.7713646   -1.2730967    1.2633753
C    -2.8898548   -1.2624035    1.1994307
H    -2.9683706   -2.2124563    1.7152676
C    -2.5773185    2.5963696   -0.4192930
H    -3.4870728    3.1412239   -0.6474055
C    -1.3741895    3.2147896   -0.4364030
H    -1.2997315    4.2742019   -0.6578144
C    -0.1719488    2.4994090   -0.1734588
C    -0.2043917    1.1018437    0.0192689
C     1.0513491    3.2042560   -0.0676222
H     1.0427344    4.2819499   -0.1896997
C     2.1942091    2.5487446    0.2579577
H     3.1168527    3.0912848    0.4334727
C     2.2216473    1.1336562    0.2934990
C     1.0486931    0.3945528    0.0302412
C     3.4483363    0.4614633    0.5573939
H     4.3095794    1.0606054    0.8334846
C     3.5427346   -0.8855926    0.4749463
H     4.4731467   -1.3939704    0.7038822
C     2.4490052   -1.6474447   -0.0196319
C     1.2150704   -1.0057258   -0.3013573
C     0.2531113   -1.7434440   -1.0216591
H    -0.6541356   -1.2535051   -1.3462847
C     0.4494193   -3.0628597   -1.3413779
H    -0.3083162   -3.5944309   -1.9054060
C     1.6251726   -3.7207967   -0.9552541
H     1.7670048   -4.7687404   -1.1927019
C     2.6109872   -3.0144177   -0.3183050
H     3.5525612   -3.4902813   -0.0646367
Bq        -0.3389931097    -3.1635409461    -1.5927665815
Bq        -0.6977489838    -3.4030818061    -0.8028840591
Bq        -0.2991313460    -3.1369252950    -1.6805313062
Bq        -0.4984401649    -3.2700035506    -1.2417076827
Bq        -0.5493084021    -3.2002262190    -1.1297097075
Bq        -0.4695848745    -3.1469949167    -1.3052391569
Bq        -0.5891701658    -3.2268418701    -1.0419449828
Bq        -0.4297231107    -3.1203792656    -1.3930038816
Bq        -0.6290319296    -3.2534575212    -0.9541802581
Bq        -0.3898613469    -3.0937636145    -1.4807686063
Bq        -0.6688936934    -3.2800731723    -0.8664155334
Bq        -0.3499995831    -3.0671479634    -1.5685333311
Bq        -0.7087554572    -3.3066888234    -0.7786508086
Bq        -0.3101378193    -3.0405323123    -1.6562980558
Bq        -0.5094466383    -3.1736105679    -1.2174744322
Bq        -0.5603148754    -3.1038332362    -1.1054764570
Bq        -0.4805913479    -3.0506019340    -1.2810059065
Bq        -0.6001766392    -3.1304488874    -1.0177117323
Bq        -0.4407295841    -3.0239862829    -1.3687706312
Bq        -0.6400384030    -3.1570645385    -0.9299470076
Bq        -0.4008678203    -2.9973706318    -1.4565353559
Bq        -0.6799001668    -3.1836801896    -0.8421822829
Bq        -0.3610060565    -2.9707549807    -1.5443000806
Bq        -0.7197619306    -3.2102958407    -0.7544175582
Bq        -0.3211442927    -2.9441393296    -1.6320648053
Bq        -0.5204531116    -3.0772175851    -1.1932411818
Bq        -0.5713213488    -3.0074402535    -1.0812432066
Bq        -0.4915978212    -2.9542089513    -1.2567726560
Bq        -0.6111831126    -3.0340559046    -0.9934784819
Bq        -0.4517360574    -2.9275933002    -1.3445373807
Bq        -0.6510448764    -3.0606715558    -0.9057137572
Bq        -0.4118742937    -2.9009776491    -1.4323021054
Bq        -0.6909066402    -3.0872872069    -0.8179490324
Bq        -0.3720125299    -2.8743619980    -1.5200668301
Bq        -0.7307684040    -3.1139028580    -0.7301843077
Bq        -0.3321507661    -2.8477463469    -1.6078315549
Bq        -0.5314595850    -2.9808246024    -1.1690079313
Bq        -0.5823278222    -2.9110472708    -1.0570099561
Bq        -0.5026042946    -2.8578159686    -1.2325394055
Bq        -0.6221895860    -2.9376629219    -0.9692452314
Bq        -0.4627425308    -2.8312003175    -1.3203041303
Bq        -0.6620513497    -2.9642785730    -0.8814805067
Bq        -0.4228807670    -2.8045846664    -1.4080688550
Bq        -0.7019131135    -2.9908942241    -0.7937157820
Bq        -0.3830190032    -2.7779690153    -1.4958335797
Bq        -0.7417748773    -3.0175098753    -0.7059510573
Bq        -0.3431572394    -2.7513533642    -1.5835983044
Bq        -0.5424660584    -2.8844316197    -1.1447746808
Bq        -0.5933342955    -2.8146542881    -1.0327767057
Bq        -0.5136107680    -2.7614229859    -1.2083061551
Bq        -0.6331960593    -2.8412699392    -0.9450119810
Bq        -0.4737490042    -2.7348073348    -1.2960708798
Bq        -0.6730578231    -2.8678855903    -0.8572472562
Bq        -0.4338872404    -2.7081916837    -1.3838356045
Bq        -0.7129195869    -2.8945012414    -0.7694825315
Bq        -0.3940254766    -2.6815760326    -1.4716003292
Bq        -0.7527813507    -2.9211168925    -0.6817178068
Bq        -0.3541637128    -2.6549603815    -1.5593650539
Bq        -0.5534725318    -2.7880386370    -1.1205414304
Bq        -0.6043407689    -2.7182613054    -1.0085434552
Bq        -0.5246172413    -2.6650300032    -1.1840729046
Bq        -0.6442025327    -2.7448769565    -0.9207787305
Bq        -0.4847554776    -2.6384143521    -1.2718376293
Bq        -0.6840642965    -2.7714926076    -0.8330140058
Bq        -0.4448937138    -2.6117987010    -1.3596023541
Bq        -0.7239260603    -2.7981082587    -0.7452492811
Bq        -0.4050319500    -2.5851830499    -1.4473670788
Bq        -0.7637878241    -2.8247239098    -0.6574845564
Bq        -0.3651701862    -2.5585673988    -1.5351318035
Bq        -0.5644790051    -2.6916456543    -1.0963081799
Bq        -0.6153472423    -2.6218683227    -0.9843102047
Bq        -0.5356237147    -2.5686370205    -1.1598396542
Bq        -0.6552090061    -2.6484839738    -0.8965454800
Bq        -0.4957619509    -2.5420213694    -1.2476043789
Bq        -0.6950707699    -2.6750996249    -0.8087807553
Bq        -0.4559001871    -2.5154057183    -1.3353691036
Bq        -0.7349325337    -2.7017152760    -0.7210160306
Bq        -0.4160384234    -2.4887900672    -1.4231338283
Bq        -0.7747942974    -2.7283309271    -0.6332513059
Bq        -0.3761766596    -2.4621744160    -1.5108985530
Bq        -0.5754854785    -2.5952526716    -1.0720749295
Bq        -0.6263537157    -2.5254753400    -0.9600769543
Bq        -0.5466301881    -2.4722440378    -1.1356064037
Bq        -0.6662154794    -2.5520909911    -0.8723122296
Bq        -0.5067684243    -2.4456283867    -1.2233711284
Bq        -0.7060772432    -2.5787066422    -0.7845475049
Bq        -0.4669066605    -2.4190127355    -1.3111358531
Bq        -0.7459390070    -2.6053222933    -0.6967827802
Bq        -0.4270448967    -2.3923970844    -1.3989005779
Bq        -0.7858007708    -2.6319379444    -0.6090180554
Bq        -0.3871831329    -2.3657814333    -1.4866653026
Bq        -0.5864919519    -2.4988596889    -1.0478416790
Bq        -0.6373601890    -2.4290823573    -0.9358437038
Bq        -0.5576366615    -2.3758510550    -1.1113731533
Bq        -0.6772219528    -2.4556980084    -0.8480789791
Bq        -0.5177748977    -2.3492354039    -1.1991378780
Bq        -0.7170837166    -2.4823136595    -0.7603142544
Bq        -0.4779131339    -2.3226197528    -1.2869026027
Bq        -0.7569454804    -2.5089293106    -0.6725495297
Bq        -0.4380513701    -2.2960041017    -1.3746673274
Bq        -0.7968072442    -2.5355449617    -0.5847848050
Bq        -0.3981896063    -2.2693884506    -1.4624320521
Bq        -0.5974984252    -2.4024667062    -1.0236084285
Bq        -0.6483666624    -2.3326893746    -0.9116104534
Bq        -0.5686431348    -2.2794580723    -1.0871399028
Bq        -0.6882284262    -2.3593050257    -0.8238457287
Bq        -0.5287813710    -2.2528424212    -1.1749046275
Bq        -0.7280901900    -2.3859206768    -0.7360810039
Bq        -0.4889196073    -2.2262267701    -1.2626693522
Bq        -0.7679519538    -2.4125363279    -0.6483162792
Bq        -0.4490578435    -2.1996111190    -1.3504340769
Bq        -0.8078137176    -2.4391519790    -0.5605515545
Bq        -0.4091960797    -2.1729954679    -1.4381988017
Bq        -0.6085048986    -2.3060737234    -0.9993751781
Bq        -0.6593731358    -2.2362963918    -0.8873772029
Bq        -0.5796496082    -2.1830650896    -1.0629066523
Bq        -0.6992348996    -2.2629120429    -0.7996124782
Bq        -0.5397878444    -2.1564494385    -1.1506713771
Bq        -0.7390966634    -2.2895276941    -0.7118477535
Bq        -0.4999260806    -2.1298337874    -1.2384361018
Bq        -0.7789584271    -2.3161433452    -0.6240830288
Bq        -0.4600643168    -2.1032181363    -1.3262008265
Bq        -0.8188201909    -2.3427589963    -0.5363183041
Bq        -0.4202025531    -2.0766024852    -1.4139655512
Bq        -0.6195113720    -2.2096807407    -0.9751419276
Bq        -0.6703796092    -2.1399034091    -0.8631439525
Bq        -0.5906560816    -2.0866721069    -1.0386734019
Bq        -0.7102413729    -2.1665190602    -0.7753792277
Bq        -0.5507943178    -2.0600564558    -1.1264381266
Bq        -0.7501031367    -2.1931347113    -0.6876145030
Bq        -0.5109325540    -2.0334408047    -1.2142028513
Bq        -0.7899649005    -2.2197503624    -0.5998497783
Bq        -0.4710707902    -2.0068251536    -1.3019675760
Bq        -0.8298266643    -2.2463660136    -0.5120850536
Bq        -0.4312090264    -1.9802095025    -1.3897323007
Bq        -0.6305178454    -2.1132877580    -0.9509086772
Bq        -0.6813860825    -2.0435104264    -0.8389107020
Bq        -0.6016625549    -1.9902791242    -1.0144401514
Bq        -0.7212478463    -2.0701260775    -0.7511459773
Bq        -0.5618007912    -1.9636634731    -1.1022048761
Bq        -0.7611096101    -2.0967417286    -0.6633812526
Bq        -0.5219390274    -1.9370478220    -1.1899696009
Bq        -0.8009713739    -2.1233573797    -0.5756165279
Bq        -0.4820772636    -1.9104321709    -1.2777343256
Bq        -0.8408331377    -2.1499730308    -0.4878518031
Bq        -0.4422154998    -1.8838165198    -1.3654990503
Bq        -0.6415243187    -2.0168947753    -0.9266754267
Bq        -0.6923925559    -1.9471174437    -0.8146774515
Bq        -0.6126690283    -1.8938861415    -0.9902069010
Bq        -0.7322543197    -1.9737330948    -0.7269127268
Bq        -0.5728072645    -1.8672704904    -1.0779716257
Bq        -0.7721160835    -2.0003487459    -0.6391480021
Bq        -0.5329455007    -1.8406548393    -1.1657363504
Bq        -0.8119778473    -2.0269643970    -0.5513832774
Bq        -0.4930837370    -1.8140391882    -1.2535010751
Bq        -0.8518396110    -2.0535800481    -0.4636185527
Bq        -0.4532219732    -1.7874235371    -1.3412657998
Bq        -0.6525307921    -1.9205017926    -0.9024421763
Bq        -0.7033990293    -1.8507244610    -0.7904442011
Bq        -0.6236755017    -1.7974931588    -0.9659736505
Bq        -0.7432607931    -1.8773401121    -0.7026794764
Bq        -0.5838137379    -1.7708775077    -1.0537383752
Bq        -0.7831225568    -1.9039557632    -0.6149147517
Bq        -0.5439519741    -1.7442618566    -1.1415030999
Bq        -0.8229843206    -1.9305714143    -0.5271500269
Bq        -0.5040902103    -1.7176462055    -1.2292678246
Bq        -0.8628460844    -1.9571870654    -0.4393853022
Bq        -0.4642284465    -1.6910305543    -1.3170325494
Bq        -0.6635372655    -1.8241088099    -0.8782089258
Bq        -0.7144055026    -1.7543314783    -0.7662109506
Bq        -0.6346819751    -1.7011001761    -0.9417404001
Bq        -0.7542672664    -1.7809471294    -0.6784462259
Bq        -0.5948202113    -1.6744845250    -1.0295051248
Bq        -0.7941290302    -1.8075627805    -0.5906815012
Bq        -0.5549584475    -1.6478688739    -1.1172698495
Bq        -0.8339907940    -1.8341784316    -0.5029167765
Bq        -0.5150966837    -1.6212532227    -1.2050345742
Bq        -0.8738525578    -1.8607940827    -0.4151520518
Bq        -0.4752349199    -1.5946375716    -1.2927992989
Bq        -0.6745437389    -1.7277158272    -0.8539756753
Bq        -0.7254119760    -1.6579384956    -0.7419777002
Bq        -0.6456884484    -1.6047071934    -0.9175071496
Bq        -0.7652737398    -1.6845541467    -0.6542129755
Bq        -0.6058266846    -1.5780915422    -1.0052718743
Bq        -0.8051355036    -1.7111697978    -0.5664482507
Bq        -0.5659649209    -1.5514758911    -1.0930365990
Bq        -0.8449972674    -1.7377854489    -0.4786835260
Bq        -0.5261031571    -1.5248602400    -1.1808013237
Bq        -0.8848590312    -1.7644011000    -0.3909188013
Bq        -0.4862413933    -1.4982445889    -1.2685660484
Bq        -0.6855502122    -1.6313228445    -0.8297424249
Bq        -0.7364184494    -1.5615455129    -0.7177444497
Bq        -0.6566949218    -1.5083142106    -0.8932738991
Bq        -0.7762802132    -1.5881611640    -0.6299797250
Bq        -0.6168331580    -1.4816985595    -0.9810386238
Bq        -0.8161419770    -1.6147768151    -0.5422150003
Bq        -0.5769713942    -1.4550829084    -1.0688033486
Bq        -0.8560037407    -1.6413924662    -0.4544502756
Bq        -0.5371096304    -1.4284672573    -1.1565680733
Bq        -0.8958655045    -1.6680081173    -0.3666855509

1
2
3
4
5
6
7
8
9
10
11
12
13
14
15
16
17
18
19
20
21
22
23
24
25
26
27
28
29
30
31
32
33
34
35
36
37
38
39
40
41
42
43
44
45
46
47
48
49
50
51
52
53
54
55
56
57
58
59
60
61
62
63
64
65
66
67
68
69
70
71
72
73
74
75
76
77
78
79
80
81
82
83
84
85
86
87
88
89
90
91
92
93
94
95
96
97
98
99
100
101
102
103
104
105
106
107
108
109
110
111
112
113
114
115
116
117
118
119
120
121
122
123
124
125
126
127
128
129
130
131
132
133
134
135
136
137
138
139
140
141
142
143
144
145
146
147
148
149
150
151
152
153
154
155
156
157
158
159
160
161
162
163
164
165
166
167
168
169
170
171
172
173
174
175
176
177
178
179
180
181
182
183
184
185
186
187
188
189
190
191
192
193
194
195
196
197
198
199
200
201
202
203
204
205
206
207
208
209
210
211
212
213
214
215
216
217
218
219
220
221
222
223
224
225
226
227
228
229
230
231
232
233
234
235
236

