%nproc=8
%mem=1000MB
# rb3lyp/6-311+g** NMR geom=connectivity

Title

0 1
C    -4.0500558   -0.5771862    0.8136712
H    -5.0263804   -1.0082727    1.0024760
C    -3.9381552    0.6617804    0.2400876
H    -4.8252424    1.2338890   -0.0111295
C    -2.6768410    1.2433246    0.0057578
C    -1.4974121    0.5051527    0.2848253
C    -1.6508332   -0.7338728    0.9404026
H    -0.7713646   -1.2730967    1.2633753
C    -2.8898548   -1.2624035    1.1994307
H    -2.9683706   -2.2124563    1.7152676
C    -2.5773185    2.5963696   -0.4192930
H    -3.4870728    3.1412239   -0.6474055
C    -1.3741895    3.2147896   -0.4364030
H    -1.2997315    4.2742019   -0.6578144
C    -0.1719488    2.4994090   -0.1734588
C    -0.2043917    1.1018437    0.0192689
C     1.0513491    3.2042560   -0.0676222
H     1.0427344    4.2819499   -0.1896997
C     2.1942091    2.5487446    0.2579577
H     3.1168527    3.0912848    0.4334727
C     2.2216473    1.1336562    0.2934990
C     1.0486931    0.3945528    0.0302412
C     3.4483363    0.4614633    0.5573939
H     4.3095794    1.0606054    0.8334846
C     3.5427346   -0.8855926    0.4749463
H     4.4731467   -1.3939704    0.7038822
C     2.4490052   -1.6474447   -0.0196319
C     1.2150704   -1.0057258   -0.3013573
C     0.2531113   -1.7434440   -1.0216591
H    -0.6541356   -1.2535051   -1.3462847
C     0.4494193   -3.0628597   -1.3413779
H    -0.3083162   -3.5944309   -1.9054060
C     1.6251726   -3.7207967   -0.9552541
H     1.7670048   -4.7687404   -1.1927019
C     2.6109872   -3.0144177   -0.3183050
H     3.5525612   -3.4902813   -0.0646367
Bq        -4.4878255146    -1.2040408220     1.5864516027
Bq        -4.4888875013    -1.0735926710     1.8566036933
Bq        -4.4874715190    -1.2475235390     1.4964009058
Bq        -4.4892414969    -1.0301099540     1.9466543902
Bq        -4.4871175234    -1.2910062560     1.4063502089
Bq        -4.4895954925    -0.9866272370     2.0367050871
Bq        -4.4867635279    -1.3344889731     1.3162995120
Bq        -4.4899494880    -0.9431445200     2.1267557840
Bq        -4.4864095323    -1.3779716901     1.2262488151
Bq        -4.4881795102    -1.1605581050     1.6765022995
Bq        -4.4883625735    -1.0270239954     1.7230706154
Bq        -4.4876545823    -1.1139894294     1.5429692216
Bq        -4.4887165690    -0.9835412784     1.8131213123
Bq        -4.4873005867    -1.1574721464     1.4529185248
Bq        -4.4890705646    -0.9400585614     1.9031720092
Bq        -4.4869465912    -1.2009548634     1.3628678279
Bq        -4.4894245602    -0.8965758443     1.9932227060
Bq        -4.4865925956    -1.2444375804     1.2728171310
Bq        -4.4897785558    -0.8530931273     2.0832734029
Bq        -4.4862386000    -1.2879202974     1.1827664341
Bq        -4.4880085779    -1.0705067124     1.6330199185
Bq        -4.4881916412    -0.9369726027     1.6795882344
Bq        -4.4874836500    -1.0239380367     1.4994868406
Bq        -4.4885456368    -0.8934898857     1.7696389312
Bq        -4.4871296545    -1.0674207537     1.4094361437
Bq        -4.4888996323    -0.8500071687     1.8596896281
Bq        -4.4867756589    -1.1109034707     1.3193854468
Bq        -4.4892536279    -0.8065244517     1.9497403250
Bq        -4.4864216633    -1.1543861877     1.2293347500
Bq        -4.4896076235    -0.7630417347     2.0397910219
Bq        -4.4860676677    -1.1978689047     1.1392840531
Bq        -4.4878376456    -0.9804553197     1.5895375375
Bq        -4.4880207089    -0.8469212100     1.6361058533
Bq        -4.4873127178    -0.9338866440     1.4560044596
Bq        -4.4883747045    -0.8034384930     1.7261565502
Bq        -4.4869587222    -0.9773693610     1.3659537627
Bq        -4.4887287001    -0.7599557760     1.8162072471
Bq        -4.4866047266    -1.0208520780     1.2759030658
Bq        -4.4890826956    -0.7164730590     1.9062579440
Bq        -4.4862507310    -1.0643347950     1.1858523689
Bq        -4.4894366912    -0.6729903420     1.9963086409
Bq        -4.4858967355    -1.1078175120     1.0958016720
Bq        -4.4876667133    -0.8904039270     1.5460551565
Bq        -4.4878497766    -0.7568698173     1.5926234723
Bq        -4.4871417855    -0.8438352514     1.4125220785
Bq        -4.4882037722    -0.7133871003     1.6826741692
Bq        -4.4867877899    -0.8873179684     1.3224713817
Bq        -4.4885577678    -0.6699043833     1.7727248661
Bq        -4.4864337943    -0.9308006854     1.2324206848
Bq        -4.4889117634    -0.6264216663     1.8627755629
Bq        -4.4860797988    -0.9742834024     1.1423699879
Bq        -4.4892657589    -0.5829389493     1.9528262598
Bq        -4.4857258032    -1.0177661194     1.0523192910
Bq        -4.4874957811    -0.8003525344     1.5025727754
Bq        -4.4876788444    -0.6668184247     1.5491410913
Bq        -4.4869708532    -0.7537838587     1.3690396975
Bq        -4.4880328399    -0.6233357077     1.6391917882
Bq        -4.4866168576    -0.7972665757     1.2789890006
Bq        -4.4883868355    -0.5798529907     1.7292424850
Bq        -4.4862628621    -0.8407492927     1.1889383037
Bq        -4.4887408311    -0.5363702737     1.8192931819
Bq        -4.4859088665    -0.8842320097     1.0988876069
Bq        -4.4890948267    -0.4928875567     1.9093438788
Bq        -4.4855548709    -0.9277147267     1.0088369100
Bq        -4.4873248488    -0.7103011417     1.4590903944
Bq        -4.4875079121    -0.5767670320     1.5056587102
Bq        -4.4867999209    -0.6637324660     1.3255573165
Bq        -4.4878619077    -0.5332843150     1.5957094071
Bq        -4.4864459254    -0.7072151830     1.2355066196
Bq        -4.4882159032    -0.4898015980     1.6857601040
Bq        -4.4860919298    -0.7506979000     1.1454559227
Bq        -4.4885698988    -0.4463188810     1.7758108009
Bq        -4.4857379342    -0.7941806170     1.0554052258
Bq        -4.4889238944    -0.4028361640     1.8658614978
Bq        -4.4853839386    -0.8376633340     0.9653545289
Bq        -4.4871539165    -0.6202497490     1.4156080134
Bq        -4.4873369798    -0.4867156393     1.4621763292
Bq        -4.4866289887    -0.5736810733     1.2820749354
Bq        -4.4876909754    -0.4432329223     1.5522270261
Bq        -4.4862749931    -0.6171637904     1.1920242386
Bq        -4.4880449710    -0.3997502053     1.6422777230
Bq        -4.4859209975    -0.6606465074     1.1019735417
Bq        -4.4883989665    -0.3562674883     1.7323284199
Bq        -4.4855670019    -0.7041292244     1.0119228448
Bq        -4.4887529621    -0.3127847713     1.8223791167
Bq        -4.4852130064    -0.7476119414     0.9218721479
Bq        -4.4869829842    -0.5301983563     1.3721256323
Bq        -4.4871660475    -0.3966642467     1.4186939482
Bq        -4.4864580564    -0.4836296807     1.2385925544
Bq        -4.4875200431    -0.3531815297     1.5087446451
Bq        -4.4861040608    -0.5271123977     1.1485418575
Bq        -4.4878740387    -0.3096988127     1.5987953419
Bq        -4.4857500652    -0.5705951147     1.0584911606
Bq        -4.4882280343    -0.2662160957     1.6888460388
Bq        -4.4853960697    -0.6140778317     0.9684404638
Bq        -4.4885820298    -0.2227333786     1.7788967357
Bq        -4.4850420741    -0.6575605487     0.8783897669
Bq        -4.4868120520    -0.4401469637     1.3286432513
Bq        -4.4869951153    -0.3066128540     1.3752115671
Bq        -4.4862871241    -0.3935782880     1.1951101734
Bq        -4.4873491108    -0.2631301370     1.4652622640
Bq        -4.4859331285    -0.4370610050     1.1050594765
Bq        -4.4877031064    -0.2196474200     1.5553129609
Bq        -4.4855791330    -0.4805437220     1.0150087796
Bq        -4.4880571020    -0.1761647030     1.6453636578
Bq        -4.4852251374    -0.5240264390     0.9249580827
Bq        -4.4884110976    -0.1326819860     1.7354143547
Bq        -4.4848711418    -0.5675091560     0.8349073858
Bq        -4.4866411197    -0.3500955710     1.2851608703
Bq        -4.4868241830    -0.2165614613     1.3317291861
Bq        -4.4861161918    -0.3035268953     1.1516277923
Bq        -4.4871781786    -0.1730787443     1.4217798830
Bq        -4.4857621963    -0.3470096123     1.0615770955
Bq        -4.4875321741    -0.1295960273     1.5118305799
Bq        -4.4854082007    -0.3904923293     0.9715263986
Bq        -4.4878861697    -0.0861133103     1.6018812768
Bq        -4.4850542051    -0.4339750463     0.8814757017
Bq        -4.4882401653    -0.0426305933     1.6919319736
Bq        -4.4847002095    -0.4774577634     0.7914250048
Bq        -4.4864701874    -0.2600441783     1.2416784892
Bq        -4.4866532507    -0.1265100687     1.2882468051
Bq        -4.4859452596    -0.2134755027     1.1081454113
Bq        -4.4870072463    -0.0830273517     1.3782975020
Bq        -4.4855912640    -0.2569582197     1.0180947144
Bq        -4.4873612419    -0.0395446346     1.4683481988
Bq        -4.4852372684    -0.3004409367     0.9280440175
Bq        -4.4877152374     0.0039380824     1.5583988957
Bq        -4.4848832728    -0.3439236537     0.8379933207
Bq        -4.4880692330     0.0474207994     1.6484495926
Bq        -4.4845292773    -0.3874063707     0.7479426238
Bq        -4.4862992551    -0.1699927857     1.1981961082
Bq        -4.4864823184    -0.0364586760     1.2447644240
Bq        -4.4857743273    -0.1234241100     1.0646630303
Bq        -4.4868363140     0.0070240410     1.3348151209
Bq        -4.4854203317    -0.1669068270     0.9746123334
Bq        -4.4871903096     0.0505067580     1.4248658178
Bq        -4.4850663361    -0.2103895440     0.8845616365
Bq        -4.4875443052     0.0939894750     1.5149165147
Bq        -4.4847123406    -0.2538722610     0.7945109396
Bq        -4.4878983007     0.1374721920     1.6049672116
Bq        -4.4843583450    -0.2973549780     0.7044602427
Bq        -4.4861283229    -0.0799413930     1.1547137272
Bq        -4.4863113862     0.0535927167     1.2012820430
Bq        -4.4856033950    -0.0333727173     1.0211806492
Bq        -4.4866653817     0.0970754337     1.2913327399
Bq        -4.4852493994    -0.0768554343     0.9311299524
Bq        -4.4870193773     0.1405581507     1.3813834368
Bq        -4.4848954039    -0.1203381513     0.8410792555
Bq        -4.4873733729     0.1840408677     1.4714341337
Bq        -4.4845414083    -0.1638208683     0.7510285586
Bq        -4.4877273685     0.2275235847     1.5614848305
Bq        -4.4841874127    -0.2073035853     0.6609778617
Bq        -4.4859573906     0.0101099997     1.1112313461
Bq        -4.4861404539     0.1436441094     1.1577996620
Bq        -4.4854324627     0.0566786753     0.9776982682
Bq        -4.4864944495     0.1871268264     1.2478503589
Bq        -4.4850784672     0.0131959583     0.8876475713
Bq        -4.4868484450     0.2306095434     1.3379010557
Bq        -4.4847244716    -0.0302867587     0.7975968744
Bq        -4.4872024406     0.2740922604     1.4279517526
Bq        -4.4843704760    -0.0737694757     0.7075461776
Bq        -4.4875564362     0.3175749774     1.5180024495
Bq        -4.4840164804    -0.1172521927     0.6174954807
Bq        -4.4857864583     0.1001613924     1.0677489651
Bq        -4.4859695216     0.2336955020     1.1143172809
Bq        -4.4852615305     0.1467300680     0.9342158872
Bq        -4.4863235172     0.2771782190     1.2043679778
Bq        -4.4849075349     0.1032473510     0.8441651903
Bq        -4.4866775128     0.3206609360     1.2944186747
Bq        -4.4845535393     0.0597646340     0.7541144934
Bq        -4.4870315083     0.3641436530     1.3844693716
Bq        -4.4841995437     0.0162819170     0.6640637965
Bq        -4.4873855039     0.4076263700     1.4745200685
Bq        -4.4838455482    -0.0272008000     0.5740130996
Bq        -4.4856155260     0.1902127850     1.0242665841
Bq        -4.4857985893     0.3237468947     1.0708348999
Bq        -4.4850905982     0.2367814607     0.8907335061
Bq        -4.4861525849     0.3672296117     1.1608855968
Bq        -4.4847366026     0.1932987437     0.8006828093
Bq        -4.4865065805     0.4107123287     1.2509362937
Bq        -4.4843826070     0.1498160267     0.7106321124
Bq        -4.4868605761     0.4541950457     1.3409869906
Bq        -4.4840286115     0.1063333097     0.6205814155
Bq        -4.4872145716     0.4976777627     1.4310376874
Bq        -4.4836746159     0.0628505927     0.5305307186
Bq        -4.4854445938     0.2802641777     0.9807842030
Bq        -4.4856276571     0.4137982874     1.0273525189
Bq        -4.4849196659     0.3268328534     0.8472511251
Bq        -4.4859816526     0.4572810044     1.1174032158
Bq        -4.4845656703     0.2833501364     0.7572004282
Bq        -4.4863356482     0.5007637214     1.2074539126
Bq        -4.4842116748     0.2398674194     0.6671497313
Bq        -4.4866896438     0.5442464384     1.2975046095
Bq        -4.4838576792     0.1963847023     0.5770990345
Bq        -4.4870436394     0.5877291554     1.3875553064
Bq        -4.4835036836     0.1529019853     0.4870483376
Bq        -4.4852736615     0.3703155704     0.9373018220
Bq        -4.4854567248     0.5038496800     0.9838701378
Bq        -4.4847487336     0.4168842460     0.8037687441
Bq        -4.4858107204     0.5473323970     1.0739208347

1
2
3
4
5
6
7
8
9
10
11
12
13
14
15
16
17
18
19
20
21
22
23
24
25
26
27
28
29
30
31
32
33
34
35
36
37
38
39
40
41
42
43
44
45
46
47
48
49
50
51
52
53
54
55
56
57
58
59
60
61
62
63
64
65
66
67
68
69
70
71
72
73
74
75
76
77
78
79
80
81
82
83
84
85
86
87
88
89
90
91
92
93
94
95
96
97
98
99
100
101
102
103
104
105
106
107
108
109
110
111
112
113
114
115
116
117
118
119
120
121
122
123
124
125
126
127
128
129
130
131
132
133
134
135
136
137
138
139
140
141
142
143
144
145
146
147
148
149
150
151
152
153
154
155
156
157
158
159
160
161
162
163
164
165
166
167
168
169
170
171
172
173
174
175
176
177
178
179
180
181
182
183
184
185
186
187
188
189
190
191
192
193
194
195
196
197
198
199
200
201
202
203
204
205
206
207
208
209
210
211
212
213
214
215
216
217
218
219
220
221
222
223
224
225
226
227
228
229
230
231
232
233
234
235
236

