%nproc=8
%mem=1000MB
# rb3lyp/6-311+g** NMR geom=connectivity

Title

0 1
C    -4.0500558   -0.5771862    0.8136712
H    -5.0263804   -1.0082727    1.0024760
C    -3.9381552    0.6617804    0.2400876
H    -4.8252424    1.2338890   -0.0111295
C    -2.6768410    1.2433246    0.0057578
C    -1.4974121    0.5051527    0.2848253
C    -1.6508332   -0.7338728    0.9404026
H    -0.7713646   -1.2730967    1.2633753
C    -2.8898548   -1.2624035    1.1994307
H    -2.9683706   -2.2124563    1.7152676
C    -2.5773185    2.5963696   -0.4192930
H    -3.4870728    3.1412239   -0.6474055
C    -1.3741895    3.2147896   -0.4364030
H    -1.2997315    4.2742019   -0.6578144
C    -0.1719488    2.4994090   -0.1734588
C    -0.2043917    1.1018437    0.0192689
C     1.0513491    3.2042560   -0.0676222
H     1.0427344    4.2819499   -0.1896997
C     2.1942091    2.5487446    0.2579577
H     3.1168527    3.0912848    0.4334727
C     2.2216473    1.1336562    0.2934990
C     1.0486931    0.3945528    0.0302412
C     3.4483363    0.4614633    0.5573939
H     4.3095794    1.0606054    0.8334846
C     3.5427346   -0.8855926    0.4749463
H     4.4731467   -1.3939704    0.7038822
C     2.4490052   -1.6474447   -0.0196319
C     1.2150704   -1.0057258   -0.3013573
C     0.2531113   -1.7434440   -1.0216591
H    -0.6541356   -1.2535051   -1.3462847
C     0.4494193   -3.0628597   -1.3413779
H    -0.3083162   -3.5944309   -1.9054060
C     1.6251726   -3.7207967   -0.9552541
H     1.7670048   -4.7687404   -1.1927019
C     2.6109872   -3.0144177   -0.3183050
H     3.5525612   -3.4902813   -0.0646367
Bq         1.6740299793    -0.7206243196     0.7460143827
Bq         1.8334770344    -0.6141617151     0.3949554839
Bq         1.6341682155    -0.7472399707     0.8337791074
Bq         1.8733387982    -0.5875460640     0.3071907592
Bq         1.5943064517    -0.7738556218     0.9215438321
Bq         1.9132005620    -0.5609304129     0.2194260344
Bq         1.5544446879    -0.8004712729     1.0093085569
Bq         1.9530623258    -0.5343147618     0.1316613097
Bq         1.7537535068    -0.6673930173     0.5704849333
Bq         1.7028852697    -0.5976156857     0.6824829085
Bq         1.7826087972    -0.5443843835     0.5069534590
Bq         1.6630235059    -0.6242313368     0.7702476332
Bq         1.8224705610    -0.5177687324     0.4191887343
Bq         1.6231617421    -0.6508469879     0.8580123579
Bq         1.8623323248    -0.4911530813     0.3314240096
Bq         1.5832999783    -0.6774626391     0.9457770826
Bq         1.9021940886    -0.4645374302     0.2436592849
Bq         1.5434382145    -0.7040782902     1.0335418073
Bq         1.9420558524    -0.4379217791     0.1558945602
Bq         1.7427470335    -0.5710000346     0.5947181838
Bq         1.6918787963    -0.5012227030     0.7067161589
Bq         1.7716023239    -0.4479914008     0.5311867095
Bq         1.6520170325    -0.5278383541     0.7944808836
Bq         1.8114640877    -0.4213757497     0.4434219848
Bq         1.6121552687    -0.5544540052     0.8822456083
Bq         1.8513258515    -0.3947600986     0.3556572601
Bq         1.5722935049    -0.5810696563     0.9700103331
Bq         1.8911876152    -0.3681444475     0.2678925354
Bq         1.5324317412    -0.6076853074     1.0577750578
Bq         1.9310493790    -0.3415287964     0.1801278106
Bq         1.7317405601    -0.4746070519     0.6189514342
Bq         1.6808723229    -0.4048297203     0.7309494094
Bq         1.7605958505    -0.3515984181     0.5554199600
Bq         1.6410105591    -0.4314453714     0.8187141341
Bq         1.8004576143    -0.3249827670     0.4676552352
Bq         1.6011487954    -0.4580610225     0.9064788588
Bq         1.8403193781    -0.2983671159     0.3798905105
Bq         1.5612870316    -0.4846766736     0.9942435835
Bq         1.8801811419    -0.2717514648     0.2921257858
Bq         1.5214252678    -0.5112923247     1.0820083082
Bq         1.9200429057    -0.2451358137     0.2043610611
Bq         1.7207340867    -0.3782140692     0.6431846847
Bq         1.6698658496    -0.3084367376     0.7551826598
Bq         1.7495893771    -0.2552054354     0.5796532104
Bq         1.6300040858    -0.3350523887     0.8429473845
Bq         1.7894511409    -0.2285897843     0.4918884857
Bq         1.5901423220    -0.3616680398     0.9307121093
Bq         1.8293129047    -0.2019741332     0.4041237610
Bq         1.5502805582    -0.3882836909     1.0184768340
Bq         1.8691746685    -0.1753584821     0.3163590363
Bq         1.5104187944    -0.4148993420     1.1062415587
Bq         1.9090364323    -0.1487428310     0.2285943116
Bq         1.7097276133    -0.2818210865     0.6674179351
Bq         1.6588593762    -0.2120437549     0.7794159103
Bq         1.7385829038    -0.1588124527     0.6038864609
Bq         1.6189976124    -0.2386594060     0.8671806350
Bq         1.7784446675    -0.1321968016     0.5161217362
Bq         1.5791358486    -0.2652750571     0.9549453597
Bq         1.8183064313    -0.1055811505     0.4283570114
Bq         1.5392740848    -0.2918907082     1.0427100844
Bq         1.8581681951    -0.0789654993     0.3405922867
Bq         1.4994123210    -0.3185063593     1.1304748091
Bq         1.8980299589    -0.0523498482     0.2528275620
Bq         1.6987211400    -0.1854281038     0.6916511856
Bq         1.6478529028    -0.1156507722     0.8036491608
Bq         1.7275764304    -0.0624194700     0.6281197113
Bq         1.6079911390    -0.1422664233     0.8914138855
Bq         1.7674381942    -0.0358038189     0.5403549866
Bq         1.5681293752    -0.1688820744     0.9791786102
Bq         1.8072999580    -0.0091881677     0.4525902619
Bq         1.5282676115    -0.1954977255     1.0669433349
Bq         1.8471617218     0.0174274834     0.3648255372
Bq         1.4884058477    -0.2221133766     1.1547080596
Bq         1.8870234855     0.0440431345     0.2770608125
Bq         1.6877146666    -0.0890351211     0.7158844360
Bq         2.2892254447    -4.9352999078    -0.3666599745
Bq         2.3689489723    -4.8820686056    -0.5421894239
Bq         2.2493636809    -4.9619155589    -0.2788952498
Bq         2.4088107361    -4.8554529545    -0.6299541487
Bq         2.2095019172    -4.9885312100    -0.1911305251
Bq         2.4486724999    -4.8288373034    -0.7177188734
Bq         2.1696401534    -5.0151468611    -0.1033658004
Bq         2.4885342637    -4.8022216522    -0.8054835981
Bq         2.1297783896    -5.0417625122    -0.0156010757
Bq         2.5283960275    -4.7756060011    -0.8932483228
Bq         2.3290872085    -4.9086842567    -0.4544246992
Bq         2.2782189714    -4.8389069251    -0.3424267241
Bq         2.3579424989    -4.7856756229    -0.5179561735
Bq         2.2383572076    -4.8655225762    -0.2546619993
Bq         2.3978042627    -4.7590599717    -0.6057208982
Bq         2.1984954438    -4.8921382273    -0.1668972746
Bq         2.4376660265    -4.7324443206    -0.6934856229
Bq         2.1586336800    -4.9187538784    -0.0791325499
Bq         2.4775277903    -4.7058286695    -0.7812503476
Bq         2.1187719162    -4.9453695295     0.0086321748
Bq         2.5173895541    -4.6792130184    -0.8690150723
Bq         2.3180807351    -4.8122912740    -0.4301914488
Bq         2.2672124980    -4.7425139424    -0.3181934736
Bq         2.3469360256    -4.6892826401    -0.4937229230
Bq         2.2273507342    -4.7691295935    -0.2304287489
Bq         2.3867977894    -4.6626669890    -0.5814876477
Bq         2.1874889704    -4.7957452446    -0.1426640242
Bq         2.4266595531    -4.6360513379    -0.6692523725
Bq         2.1476272066    -4.8223608957    -0.0548992995
Bq         2.4665213169    -4.6094356868    -0.7570170972
Bq         2.1077654428    -4.8489765468     0.0328654252
Bq         2.5063830807    -4.5828200357    -0.8447818219
Bq         2.3070742618    -4.7158982912    -0.4059581983
Bq         2.2562060246    -4.6461209596    -0.2939602231
Bq         2.3359295522    -4.5928896574    -0.4694896726
Bq         2.2163442608    -4.6727366108    -0.2061954984
Bq         2.3757913160    -4.5662740063    -0.5572543973
Bq         2.1764824970    -4.6993522619    -0.1184307737
Bq         2.4156530798    -4.5396583552    -0.6450191220
Bq         2.1366207333    -4.7259679130    -0.0306660490
Bq         2.4555148436    -4.5130427041    -0.7327838467
Bq         2.0967589695    -4.7525835641     0.0570986757
Bq         2.4953766073    -4.4864270530    -0.8205485714
Bq         2.2960677884    -4.6195053085    -0.3817249479
Bq         2.2451995512    -4.5497279769    -0.2697269727
Bq         2.3249230788    -4.4964966747    -0.4452564221
Bq         2.2053377875    -4.5763436280    -0.1819622480
Bq         2.3647848426    -4.4698810236    -0.5330211468
Bq         2.1654760237    -4.6029592791    -0.0941975233
Bq         2.4046466064    -4.4432653725    -0.6207858715
Bq         2.1256142599    -4.6295749303    -0.0064327985
Bq         2.4445083702    -4.4166497214    -0.7085505963
Bq         2.0857524961    -4.6561905814     0.0813319262
Bq         2.4843701340    -4.3900340703    -0.7963153210
Bq         2.2850613150    -4.5231123258    -0.3574916974
Bq         2.2341930779    -4.4533349942    -0.2454937222
Bq         2.3139166054    -4.4001036920    -0.4210231717
Bq         2.1943313141    -4.4799506453    -0.1577289975
Bq         2.3537783692    -4.3734880409    -0.5087878964
Bq         2.1544695503    -4.5065662964    -0.0699642728
Bq         2.3936401330    -4.3468723898    -0.5965526211
Bq         2.1146077865    -4.5331819475     0.0178004519
Bq         2.4335018968    -4.3202567387    -0.6843173458
Bq         2.0747460227    -4.5597975986     0.1055651766
Bq         2.4733636606    -4.2936410876    -0.7720820705
Bq         2.2740548417    -4.4267193431    -0.3332584469
Bq         2.2231866045    -4.3569420115    -0.2212604718
Bq         2.3029101321    -4.3037107093    -0.3967899212
Bq         2.1833248407    -4.3835576626    -0.1334957471
Bq         2.3427718959    -4.2770950582    -0.4845546459
Bq         2.1434630769    -4.4101733137    -0.0457310223
Bq         2.3826336596    -4.2504794071    -0.5723193706
Bq         2.1036013131    -4.4367889648     0.0420337024
Bq         2.4224954234    -4.2238637560    -0.6600840953
Bq         2.0637395493    -4.4634046159     0.1297984271
Bq         2.4623571872    -4.1972481049    -0.7478488200
Bq         2.2630483683    -4.3303263604    -0.3090251965
Bq         2.2121801311    -4.2605490288    -0.1970272213
Bq         2.2919036587    -4.2073177266    -0.3725566707
Bq         2.1723183673    -4.2871646799    -0.1092624966
Bq         2.3317654225    -4.1807020755    -0.4603213955
Bq         2.1324566036    -4.3137803310    -0.0214977719
Bq         2.3716271863    -4.1540864244    -0.5480861202
Bq         2.0925948398    -4.3403959821     0.0662669528
Bq         2.4114889501    -4.1274707733    -0.6358508449
Bq         2.0527330760    -4.3670116332     0.1540316775
Bq         2.4513507139    -4.1008551222    -0.7236155696
Bq         2.2520418949    -4.2339333777    -0.2847919460
Bq         2.2011736578    -4.1641560461    -0.1727939709
Bq         2.2808971853    -4.1109247439    -0.3483234203
Bq         2.1613118940    -4.1907716972    -0.0850292461
Bq         2.3207589491    -4.0843090928    -0.4360881450
Bq         2.1214501302    -4.2173873483     0.0027354786
Bq         2.3606207129    -4.0576934417    -0.5238528697
Bq         2.0815883664    -4.2440029994     0.0905002033
Bq         2.4004824767    -4.0310777905    -0.6116175944
Bq         2.0417266026    -4.2706186505     0.1782649280
Bq         2.4403442405    -4.0044621394    -0.6993823191
Bq         2.2410354215    -4.1375403950    -0.2605586956
Bq         2.1901671844    -4.0677630634    -0.1485607204
Bq         2.2698907120    -4.0145317612    -0.3240901698
Bq         2.1503054206    -4.0943787145    -0.0607959957
Bq         2.3097524757    -3.9879161100    -0.4118548945
Bq         2.1104436568    -4.1209943656     0.0269687290
Bq         2.3496142395    -3.9613004589    -0.4996196192
Bq         2.0705818930    -4.1476100167     0.1147334537
Bq         2.3894760033    -3.9346848078    -0.5873843440
Bq         2.0307201292    -4.1742256678     0.2024981785
Bq         2.4293377671    -3.9080691567    -0.6751490687
Bq         2.2300289482    -4.0411474123    -0.2363254451
Bq         2.1791607110    -3.9713700807    -0.1243274699
Bq         2.2588842386    -3.9181387784    -0.2998569194
Bq         2.1392989472    -3.9979857318    -0.0365627452
Bq         2.2987460024    -3.8915231273    -0.3876216441
Bq         2.0994371834    -4.0246013829     0.0512019795
Bq         2.3386077662    -3.8649074762    -0.4753863688
Bq         2.0595754196    -4.0512170340     0.1389667042
Bq         2.3784695299    -3.8382918251    -0.5631510935
Bq         2.0197136559    -4.0778326851     0.2267314289
Bq         2.4183312937    -3.8116761740    -0.6509158182
Bq         2.2190224748    -3.9447544296    -0.2120921947
Bq         2.1681542376    -3.8749770979    -0.1000942195
Bq         2.2478777652    -3.8217457957    -0.2756236689
Bq         2.1282924739    -3.9015927491    -0.0123294948
Bq         2.2877395290    -3.7951301446    -0.3633883936

1
2
3
4
5
6
7
8
9
10
11
12
13
14
15
16
17
18
19
20
21
22
23
24
25
26
27
28
29
30
31
32
33
34
35
36
37
38
39
40
41
42
43
44
45
46
47
48
49
50
51
52
53
54
55
56
57
58
59
60
61
62
63
64
65
66
67
68
69
70
71
72
73
74
75
76
77
78
79
80
81
82
83
84
85
86
87
88
89
90
91
92
93
94
95
96
97
98
99
100
101
102
103
104
105
106
107
108
109
110
111
112
113
114
115
116
117
118
119
120
121
122
123
124
125
126
127
128
129
130
131
132
133
134
135
136
137
138
139
140
141
142
143
144
145
146
147
148
149
150
151
152
153
154
155
156
157
158
159
160
161
162
163
164
165
166
167
168
169
170
171
172
173
174
175
176
177
178
179
180
181
182
183
184
185
186
187
188
189
190
191
192
193
194
195
196
197
198
199
200
201
202
203
204
205
206
207
208
209
210
211
212
213
214
215
216
217
218
219
220
221
222
223
224
225
226
227
228
229
230
231
232
233
234
235
236

