%nproc=8
%mem=1000MB
# rb3lyp/6-311+g** NMR geom=connectivity

Title

0 1
C    -4.0500558   -0.5771862    0.8136712
H    -5.0263804   -1.0082727    1.0024760
C    -3.9381552    0.6617804    0.2400876
H    -4.8252424    1.2338890   -0.0111295
C    -2.6768410    1.2433246    0.0057578
C    -1.4974121    0.5051527    0.2848253
C    -1.6508332   -0.7338728    0.9404026
H    -0.7713646   -1.2730967    1.2633753
C    -2.8898548   -1.2624035    1.1994307
H    -2.9683706   -2.2124563    1.7152676
C    -2.5773185    2.5963696   -0.4192930
H    -3.4870728    3.1412239   -0.6474055
C    -1.3741895    3.2147896   -0.4364030
H    -1.2997315    4.2742019   -0.6578144
C    -0.1719488    2.4994090   -0.1734588
C    -0.2043917    1.1018437    0.0192689
C     1.0513491    3.2042560   -0.0676222
H     1.0427344    4.2819499   -0.1896997
C     2.1942091    2.5487446    0.2579577
H     3.1168527    3.0912848    0.4334727
C     2.2216473    1.1336562    0.2934990
C     1.0486931    0.3945528    0.0302412
C     3.4483363    0.4614633    0.5573939
H     4.3095794    1.0606054    0.8334846
C     3.5427346   -0.8855926    0.4749463
H     4.4731467   -1.3939704    0.7038822
C     2.4490052   -1.6474447   -0.0196319
C     1.2150704   -1.0057258   -0.3013573
C     0.2531113   -1.7434440   -1.0216591
H    -0.6541356   -1.2535051   -1.3462847
C     0.4494193   -3.0628597   -1.3413779
H    -0.3083162   -3.5944309   -1.9054060
C     1.6251726   -3.7207967   -0.9552541
H     1.7670048   -4.7687404   -1.1927019
C     2.6109872   -3.0144177   -0.3183050
H     3.5525612   -3.4902813   -0.0646367
Bq         1.0484367745     2.6872803654     0.8006543009
Bq         1.0868565878     2.4417871916    -0.1679823800
Bq         1.0676466812     2.5645337785     0.3163359605
Bq         1.0647776541     2.6860229278     0.3886695992
Bq         1.0724616167     2.6369242931     0.1949422630
Bq         1.0609356728     2.7105722452     0.4855332672
Bq         1.0763035981     2.6123749757     0.0980785949
Bq         1.0570936914     2.7351215626     0.5823969353
Bq         1.0801455794     2.5878256583     0.0012149268
Bq         1.0532517101     2.7596708800     0.6792606034
Bq         1.0839875607     2.5632763409    -0.0956487413
Bq         1.0494097288     2.7842201973     0.7761242715
Bq         1.0878295421     2.5387270236    -0.1925124094
Bq         1.0686196354     2.6614736105     0.2918059311
Bq         1.0657506083     2.7829627598     0.3641395697
Bq         1.0734345710     2.7338641250     0.1704122335
Bq         1.0619086270     2.8075120771     0.4610032378
Bq         1.0772765523     2.7093148076     0.0735485655
Bq         1.0580666457     2.8320613945     0.5578669059
Bq         1.0811185336     2.6847654903    -0.0233151026
Bq         1.0542246643     2.8566107119     0.6547305740
Bq         1.0849605150     2.6602161729    -0.1201787707
Bq         1.0503826830     2.8811600293     0.7515942421
Bq         1.0888024963     2.6356668555    -0.2170424388
Bq         1.0695925896     2.7584134424     0.2672759016
Bq         1.0667235625     2.8799025917     0.3396095403
Bq         1.0744075252     2.8308039570     0.1458822041
Bq         1.0628815812     2.9044519091     0.4364732084
Bq         1.0782495065     2.8062546396     0.0490185360
Bq         1.0590395999     2.9290012265     0.5333368765
Bq         1.0820914879     2.7817053222    -0.0478451321
Bq         1.0551976185     2.9535505438     0.6302005446
Bq         1.0859334692     2.7571560048    -0.1447088002
Bq         1.0513556372     2.9780998612     0.7270642127
Bq         1.0897754505     2.7326066875    -0.2415724682
Bq         1.0705655439     2.8553532743     0.2427458722
Bq         1.0676965168     2.9768424236     0.3150795109
Bq         1.0753804794     2.9277437889     0.1213521747
Bq         1.0638545354     3.0013917410     0.4119431790
Bq         1.0792224607     2.9031944715     0.0244885066
Bq         1.0600125541     3.0259410584     0.5088068471
Bq         1.0830644421     2.8786451541    -0.0723751615
Bq         1.0561705728     3.0504903758     0.6056705151
Bq         1.0869064234     2.8540958368    -0.1692388296
Bq         1.0523285914     3.0750396931     0.7025341832
Bq         1.0907484047     2.8295465194    -0.2661024977
Bq         1.0715384981     2.9522931063     0.2182158428
Bq         1.0686694710     3.0737822556     0.2905494814
Bq         1.0763534336     3.0246836208     0.0968221453
Bq         1.0648274897     3.0983315730     0.3874131495
Bq         1.0801954150     3.0001343035    -0.0000415228
Bq         1.0609855083     3.1228808903     0.4842768176
Bq         1.0840373963     2.9755849861    -0.0969051909
Bq         1.0571435270     3.1474302077     0.5811404857
Bq         1.0878793776     2.9510356687    -0.1937688590
Bq         1.0533015457     3.1719795251     0.6780041538
Bq         1.0917213590     2.9264863513    -0.2906325271
Bq         1.0725114523     3.0492329382     0.1936858134
Bq         1.0696424252     3.1707220875     0.2660194520
Bq         1.0773263879     3.1216234528     0.0722921158
Bq         1.0658004439     3.1952714049     0.3628831201
Bq         1.0811683692     3.0970741354    -0.0245715523
Bq         1.0619584626     3.2198207223     0.4597467882
Bq         1.0850103505     3.0725248180    -0.1214352203
Bq         1.0581164812     3.2443700397     0.5566104563
Bq         1.0888523319     3.0479755006    -0.2182988884
Bq         1.0542744999     3.2689193570     0.6534741244
Bq         1.0926943132     3.0234261833    -0.3151625565
Bq         1.0734844065     3.1461727701     0.1691557839
Bq         1.0706153794     3.2676619195     0.2414894226
Bq         1.0782993421     3.2185632847     0.0477620864
Bq         1.0667733981     3.2922112368     0.3383530907
Bq         1.0821413234     3.1940139673    -0.0491015817
Bq         1.0629314168     3.3167605542     0.4352167588
Bq         1.0859833047     3.1694646500    -0.1459652498
Bq         1.0590894354     3.3413098716     0.5320804269
Bq         1.0898252861     3.1449153326    -0.2428289179
Bq         1.0552474541     3.3658591890     0.6289440949
Bq         1.0936672674     3.1203660152    -0.3396925860
Bq         1.0744573608     3.2431126021     0.1446257545
Bq         1.0715883337     3.3646017514     0.2169593932
Bq         1.0792722963     3.3155031167     0.0232320570
Bq         1.0677463523     3.3891510688     0.3138230613
Bq         1.0831142776     3.2909537993    -0.0736316111
Bq         1.0639043710     3.4137003862     0.4106867293
Bq         1.0869562590     3.2664044819    -0.1704952792
Bq         1.0600623897     3.4382497035     0.5075503974
Bq         1.0907982403     3.2418551645    -0.2673589473
Bq         1.0562204083     3.4627990209     0.6044140655
Bq         1.0946402216     3.2173058471    -0.3642226154
Bq         1.0754303150     3.3400524340     0.1200957251
Bq         1.0725612879     3.4615415833     0.1924293637
Bq         1.0802452505     3.4124429486    -0.0012979724
Bq         1.0687193066     3.4860909007     0.2892930318
Bq         1.0840872319     3.3878936312    -0.0981616405
Bq         1.0648773252     3.5106402181     0.3861566999
Bq         1.0879292132     3.3633443138    -0.1950253086
Bq         1.0610353439     3.5351895355     0.4830203680
Bq         1.0917711945     3.3387949965    -0.2918889767
Bq         1.0571933626     3.5597388528     0.5798840361
Bq         1.0956131759     3.3142456791    -0.3887526448
Bq         1.0764032692     3.4369922660     0.0955656956
Bq         1.0735342421     3.5584814153     0.1678993343
Bq         1.0812182048     3.5093827805    -0.0258280019
Bq         1.0696922608     3.5830307327     0.2647630024
Bq         1.0850601861     3.4848334632    -0.1226916700
Bq         1.0658502794     3.6075800500     0.3616266705
Bq         1.0889021674     3.4602841458    -0.2195553381
Bq         1.0620082981     3.6321293674     0.4584903386
Bq         1.0927441488     3.4357348284    -0.3164190061
Bq         1.0581663168     3.6566786848     0.5553540067
Bq         1.0965861301     3.4111855110    -0.4132826742
Bq         1.0773762234     3.5339320979     0.0710356662
Bq         1.0745071963     3.6554212472     0.1433693049
Bq         1.0821911590     3.6063226125    -0.0503580313
Bq         1.0706652150     3.6799705646     0.2402329730
Bq         1.0860331403     3.5817732951    -0.1472216994
Bq         1.0668232337     3.7045198820     0.3370966411
Bq         1.0898751216     3.5572239777    -0.2440853675
Bq         1.0629812523     3.7290691993     0.4339603092
Bq         1.0937171030     3.5326746603    -0.3409490356
Bq         1.0591392710     3.7536185167     0.5308239772
Bq         1.0975590843     3.5081253430    -0.4378127037
Bq         1.0783491777     3.6308719298     0.0465056368
Bq         1.0754801506     3.7523610792     0.1188392755
Bq         1.0831641132     3.7032624444    -0.0748880607
Bq         1.0716381692     3.7769103965     0.2157029435
Bq         1.0870060945     3.6787131270    -0.1717517288
Bq         1.0677961879     3.8014597139     0.3125666116
Bq         1.0908480759     3.6541638097    -0.2686153969
Bq         1.0639542066     3.8260090313     0.4094302797
Bq         1.0946900572     3.6296144923    -0.3654790650
Bq         1.0601122252     3.8505583487     0.5062939478
Bq         1.0985320385     3.6050651749    -0.4623427331
Bq         1.0793221319     3.7278117618     0.0219756074
Bq         1.0764531048     3.8493009111     0.0943092460
Bq         1.0841370674     3.8002022763    -0.0994180902
Bq         1.0726111235     3.8738502285     0.1911729141
Bq         1.0879790488     3.7756529590    -0.1962817582
Bq         1.0687691421     3.8983995458     0.2880365822
Bq         1.0918210301     3.7511036416    -0.2931454263
Bq         1.0649271608     3.9229488632     0.3849002503
Bq         1.0956630114     3.7265543242    -0.3900090944
Bq         1.0610851795     3.9474981806     0.4817639184
Bq         1.0995049928     3.7020050068    -0.4868727625
Bq         1.0802950861     3.8247515937    -0.0025544221
Bq         1.0774260590     3.9462407430     0.0697792166
Bq         1.0851100217     3.8971421083    -0.1239481196
Bq         1.0735840777     3.9707900604     0.1666428847
Bq         1.0889520030     3.8725927909    -0.2208117877
Bq         1.0697420963     3.9953393778     0.2635065528
Bq         1.0927939843     3.8480434735    -0.3176754558
Bq         1.0659001150     4.0198886952     0.3603702209
Bq         1.0966359656     3.8234941562    -0.4145391239
Bq         1.0620581337     4.0444380125     0.4572338890
Bq         1.1004779470     3.7989448388    -0.5114027919
Bq         1.0812680403     3.9216914257    -0.0270844515
Bq         1.0783990132     4.0431805750     0.0452491872
Bq         1.0860829759     3.9940819402    -0.1484781490
Bq         1.0745570319     4.0677298924     0.1421128553
Bq         1.0899249572     3.9695326228    -0.2453418171
Bq         1.0707150506     4.0922792097     0.2389765234
Bq         1.0937669385     3.9449833055    -0.3422054852
Bq         1.0668730692     4.1168285271     0.3358401914
Bq         1.0976089199     3.9204339881    -0.4390691533
Bq         1.0630310879     4.1413778445     0.4327038595
Bq         1.1014509012     3.8958846707    -0.5359328214
Bq         1.0822409946     4.0186312576    -0.0516144809
Bq         1.0793719675     4.1401204069     0.0207191577
Bq         1.0870559301     4.0910217722    -0.1730081784
Bq         1.0755299861     4.1646697243     0.1175828258
Bq         1.0908979114     4.0664724548    -0.2698718465
Bq         1.0716880048     4.1892190417     0.2144464939
Bq         1.0947398928     4.0419231374    -0.3667355146
Bq         1.0678460235     4.2137683590     0.3113101620
Bq         1.0985818741     4.0173738200    -0.4635991827
Bq         1.0640040421     4.2383176764     0.4081738301
Bq         1.1024238554     3.9928245027    -0.5604628508
Bq         1.0832139488     4.1155710895    -0.0761445103
Bq         1.0803449217     4.2370602389    -0.0038108717
Bq         1.0880288843     4.1879616041    -0.1975382079
Bq         1.0765029403     4.2616095562     0.0930527964
Bq         1.0918708657     4.1634122867    -0.2944018760
Bq         1.0726609590     4.2861588736     0.1899164645
Bq         1.0957128470     4.1388629694    -0.3912655440
Bq         1.0688189777     4.3107081910     0.2867801326
Bq         1.0995548283     4.1143136520    -0.4881292121
Bq         1.0649769964     4.3352575084     0.3836438007
Bq         1.1033968097     4.0897643346    -0.5849928802
Bq         1.0841869030     4.2125109215    -0.1006745398
Bq         1.0813178759     4.3340000708    -0.0283409011
Bq         1.0890018386     4.2849014360    -0.2220682373
Bq         1.0774758946     4.3585493882     0.0685227670
Bq         1.0928438199     4.2603521187    -0.3189319054
Bq         1.0736339132     4.3830987055     0.1653864351
Bq         1.0966858012     4.2358028013    -0.4157955735
Bq         1.0697919319     4.4076480229     0.2622501032
Bq         1.1005277825     4.2112534839    -0.5126592416
Bq         1.0659499506     4.4321973403     0.3591137713
Bq         1.1043697639     4.1867041665    -0.6095229096

1
2
3
4
5
6
7
8
9
10
11
12
13
14
15
16
17
18
19
20
21
22
23
24
25
26
27
28
29
30
31
32
33
34
35
36
37
38
39
40
41
42
43
44
45
46
47
48
49
50
51
52
53
54
55
56
57
58
59
60
61
62
63
64
65
66
67
68
69
70
71
72
73
74
75
76
77
78
79
80
81
82
83
84
85
86
87
88
89
90
91
92
93
94
95
96
97
98
99
100
101
102
103
104
105
106
107
108
109
110
111
112
113
114
115
116
117
118
119
120
121
122
123
124
125
126
127
128
129
130
131
132
133
134
135
136
137
138
139
140
141
142
143
144
145
146
147
148
149
150
151
152
153
154
155
156
157
158
159
160
161
162
163
164
165
166
167
168
169
170
171
172
173
174
175
176
177
178
179
180
181
182
183
184
185
186
187
188
189
190
191
192
193
194
195
196
197
198
199
200
201
202
203
204
205
206
207
208
209
210
211
212
213
214
215
216
217
218
219
220
221
222
223
224
225
226
227
228
229
230
231
232
233
234
235
236

