%nproc=8
%mem=1000MB
# rb3lyp/6-311+g** NMR geom=connectivity

Title

0 1
C    -4.0500558   -0.5771862    0.8136712
H    -5.0263804   -1.0082727    1.0024760
C    -3.9381552    0.6617804    0.2400876
H    -4.8252424    1.2338890   -0.0111295
C    -2.6768410    1.2433246    0.0057578
C    -1.4974121    0.5051527    0.2848253
C    -1.6508332   -0.7338728    0.9404026
H    -0.7713646   -1.2730967    1.2633753
C    -2.8898548   -1.2624035    1.1994307
H    -2.9683706   -2.2124563    1.7152676
C    -2.5773185    2.5963696   -0.4192930
H    -3.4870728    3.1412239   -0.6474055
C    -1.3741895    3.2147896   -0.4364030
H    -1.2997315    4.2742019   -0.6578144
C    -0.1719488    2.4994090   -0.1734588
C    -0.2043917    1.1018437    0.0192689
C     1.0513491    3.2042560   -0.0676222
H     1.0427344    4.2819499   -0.1896997
C     2.1942091    2.5487446    0.2579577
H     3.1168527    3.0912848    0.4334727
C     2.2216473    1.1336562    0.2934990
C     1.0486931    0.3945528    0.0302412
C     3.4483363    0.4614633    0.5573939
H     4.3095794    1.0606054    0.8334846
C     3.5427346   -0.8855926    0.4749463
H     4.4731467   -1.3939704    0.7038822
C     2.4490052   -1.6474447   -0.0196319
C     1.2150704   -1.0057258   -0.3013573
C     0.2531113   -1.7434440   -1.0216591
H    -0.6541356   -1.2535051   -1.3462847
C     0.4494193   -3.0628597   -1.3413779
H    -0.3083162   -3.5944309   -1.9054060
C     1.6251726   -3.7207967   -0.9552541
H     1.7670048   -4.7687404   -1.1927019
C     2.6109872   -3.0144177   -0.3183050
H     3.5525612   -3.4902813   -0.0646367
Bq         2.9057954270     2.5472926199     1.0075912137
Bq         2.9636992392     2.5276386796     0.6122927553
Bq         2.8913194740     2.5522061050     1.1064158283
Bq         2.9781751923     2.5227251945     0.5134681408
Bq         2.8768435210     2.5571195900     1.2052404428
Bq         2.9926511453     2.5178117094     0.4146435262
Bq         2.8623675679     2.5620330751     1.3040650574
Bq         3.0071270984     2.5128982243     0.3158189116
Bq         2.9347473331     2.5374656497     0.8099419845
Bq         2.9209835140     2.6422583502     0.9039049943
Bq         2.9499354201     2.6324313800     0.7062557652
Bq         2.9065075610     2.6471718353     1.0027296089
Bq         2.9644113732     2.6275178949     0.6074311506
Bq         2.8920316079     2.6520853203     1.1015542235
Bq         2.9788873262     2.6226044098     0.5086065360
Bq         2.8775556549     2.6569988054     1.2003788381
Bq         2.9933632793     2.6176909248     0.4097819214
Bq         2.8630797019     2.6619122905     1.2992034527
Bq         3.0078392323     2.6127774397     0.3109573068
Bq         2.9354594671     2.6373448651     0.8050803797
Bq         2.9216956480     2.7421375656     0.8990433896
Bq         2.9506475541     2.7323105954     0.7013941604
Bq         2.9072196949     2.7470510506     0.9978680041
Bq         2.9651235071     2.7273971103     0.6025695458
Bq         2.8927437419     2.7519645357     1.0966926187
Bq         2.9795994602     2.7224836252     0.5037449312
Bq         2.8782677888     2.7568780208     1.1955172333
Bq         2.9940754132     2.7175701401     0.4049203166
Bq         2.8637918358     2.7617915059     1.2943418479
Bq         3.0085513662     2.7126566551     0.3060957020
Bq         2.9361716010     2.7372240805     0.8002187750
Bq         2.9224077819     2.8420167809     0.8941817848
Bq         2.9513596880     2.8321898108     0.6965325556
Bq         2.9079318289     2.8469302660     0.9930063994
Bq         2.9658356410     2.8272763257     0.5977079410
Bq         2.8934558758     2.8518437511     1.0918310140
Bq         2.9803115941     2.8223628406     0.4988833265
Bq         2.8789799228     2.8567572362     1.1906556285
Bq         2.9947875471     2.8174493555     0.4000587119
Bq         2.8645039697     2.8616707213     1.2894802431
Bq         3.0092635002     2.8125358704     0.3012340973
Bq         2.9368837350     2.8371032959     0.7953571702
Bq         2.9231199159     2.9418959963     0.8893201800
Bq         2.9520718219     2.9320690261     0.6916709509
Bq         2.9086439628     2.9468094814     0.9881447946
Bq         2.9665477750     2.9271555411     0.5928463363
Bq         2.8941680098     2.9517229665     1.0869694092
Bq         2.9810237280     2.9222420560     0.4940217217
Bq         2.8796920567     2.9566364516     1.1857940238
Bq         2.9954996811     2.9173285709     0.3951971071
Bq         2.8652161037     2.9615499366     1.2846186384
Bq         3.0099756341     2.9124150858     0.2963724925
Bq         2.9375958689     2.9369825112     0.7904955654
Bq         2.9238320498     3.0417752117     0.8844585753
Bq         2.9527839559     3.0319482415     0.6868093461
Bq         2.9093560968     3.0466886968     0.9832831898
Bq         2.9672599089     3.0270347564     0.5879847315
Bq         2.8948801437     3.0516021819     1.0821078044
Bq         2.9817358620     3.0221212714     0.4891601169
Bq         2.8804041907     3.0565156669     1.1809324190
Bq         2.9962118150     3.0172077863     0.3903355023
Bq         2.8659282376     3.0614291520     1.2797570336
Bq         3.0106877681     3.0122943012     0.2915108877
Bq         2.9383080028     3.0368617266     0.7856339607
Bq         2.9245441837     3.1416544271     0.8795969705
Bq         2.9534960898     3.1318274569     0.6819477413
Bq         2.9100682307     3.1465679121     0.9784215851
Bq         2.9679720429     3.1269139718     0.5831231267
Bq         2.8955922777     3.1514813972     1.0772461997
Bq         2.9824479959     3.1220004867     0.4842985122
Bq         2.8811163246     3.1563948823     1.1760708142
Bq         2.9969239490     3.1170870017     0.3854738976
Bq         2.8666403716     3.1613083674     1.2748954288
Bq         3.0113999020     3.1121735166     0.2866492830
Bq         2.9390201368     3.1367409420     0.7807723559
Bq         2.9252563177     3.2415336424     0.8747353657
Bq         2.9542082238     3.2317066723     0.6770861366
Bq         2.9107803646     3.2464471275     0.9735599803
Bq         2.9686841768     3.2267931872     0.5782615220
Bq         2.8963044116     3.2513606126     1.0723845949
Bq         2.9831601299     3.2218797021     0.4794369074
Bq         2.8818284585     3.2562740977     1.1712092095
Bq         2.9976360829     3.2169662170     0.3806122928
Bq         2.8673525055     3.2611875828     1.2700338241
Bq         3.0121120359     3.2120527319     0.2817876782
Bq         2.9397322707     3.2366201574     0.7759107511
Bq         2.9259684516     3.3414128578     0.8698737610
Bq         2.9549203577     3.3315858877     0.6722245318
Bq         2.9114924986     3.3463263429     0.9686983755
Bq         2.9693963108     3.3266724026     0.5733999172
Bq         2.8970165455     3.3512398280     1.0675229901
Bq         2.9838722638     3.3217589175     0.4745753026
Bq         2.8825405925     3.3561533131     1.1663476047
Bq         2.9983482168     3.3168454324     0.3757506880
Bq         2.8680646394     3.3610667981     1.2651722193
Bq         3.0128241699     3.3119319473     0.2769260734
Bq         2.9404444047     3.3364993727     0.7710491464
Bq         2.9266805856     3.4412920732     0.8650121562
Bq         2.9556324917     3.4314651030     0.6673629270
Bq         2.9122046325     3.4462055583     0.9638367708
Bq         2.9701084447     3.4265516179     0.5685383124
Bq         2.8977286795     3.4511190434     1.0626613854
Bq         2.9845843977     3.4216381329     0.4697136979
Bq         2.8832527264     3.4560325284     1.1614859999
Bq         2.9990603508     3.4167246478     0.3708890833
Bq         2.8687767734     3.4609460135     1.2603106145
Bq         3.0135363038     3.4118111627     0.2720644687
Bq         2.9411565386     3.4363785881     0.7661875416
Bq         2.9273927195     3.5411712886     0.8601505514
Bq         2.9563446256     3.5313443184     0.6625013223
Bq         2.9129167665     3.5460847737     0.9589751660
Bq         2.9708205786     3.5264308333     0.5636767077
Bq         2.8984408134     3.5509982587     1.0577997806
Bq         2.9852965317     3.5215173482     0.4648520931
Bq         2.8839648604     3.5559117438     1.1566243952
Bq         2.9997724847     3.5166038632     0.3660274785
Bq         2.8694889073     3.5608252289     1.2554490098
Bq         3.0142484378     3.5116903781     0.2672028639
Bq         2.9418686726     3.5362578035     0.7613259368
Bq         2.9281048534     3.6410505039     0.8552889467
Bq         2.9570567595     3.6312235338     0.6576397175
Bq         2.9136289004     3.6459639890     0.9541135612
Bq         2.9715327126     3.6263100487     0.5588151029
Bq         2.8991529474     3.6508774741     1.0529381758
Bq         2.9860086656     3.6213965636     0.4599904883
Bq         2.8846769943     3.6557909592     1.1517627904
Bq         3.0004846187     3.6164830785     0.3611658737
Bq         2.8702010413     3.6607044443     1.2505874050
Bq         3.0149605717     3.6115695935     0.2623412591
Bq         2.9425808065     3.6361370189     0.7564643321
Bq         2.9288169874     3.7409297193     0.8504273419
Bq         2.9577688935     3.7311027492     0.6527781127
Bq         2.9143410343     3.7458432044     0.9492519565
Bq         2.9722448465     3.7261892641     0.5539534981
Bq         2.8998650813     3.7507566895     1.0480765711
Bq         2.9867207996     3.7212757790     0.4551288836
Bq         2.8853891283     3.7556701746     1.1469011856
Bq         3.0011967526     3.7163622939     0.3563042690
Bq         2.8709131752     3.7605836597     1.2457258002
Bq         3.0156727057     3.7114488088     0.2574796544
Bq         2.9432929404     3.7360162342     0.7516027273
Bq         2.9295291213     3.8408089347     0.8455657371
Bq         2.9584810274     3.8309819645     0.6479165080
Bq         2.9150531683     3.8457224198     0.9443903517
Bq         2.9729569805     3.8260684795     0.5490918934
Bq         2.9005772152     3.8506359049     1.0432149663
Bq         2.9874329335     3.8211549944     0.4502672788
Bq         2.8861012622     3.8555493900     1.1420395809
Bq         3.0019088866     3.8162415093     0.3514426642
Bq         2.8716253092     3.8604628750     1.2408641955
Bq         3.0163848396     3.8113280242     0.2526180496
Bq         2.9440050744     3.8358954496     0.7467411225
Bq         2.9302412553     3.9406881501     0.8407041324
Bq         2.9591931614     3.9308611799     0.6430549032
Bq         2.9157653022     3.9456016352     0.9395287469
Bq         2.9736691144     3.9259476948     0.5442302886
Bq         2.9012893492     3.9505151202     1.0383533615
Bq         2.9881450675     3.9210342098     0.4454056740
Bq         2.8868133961     3.9554286053     1.1371779761
Bq         3.0026210205     3.9161207247     0.3465810594
Bq         2.8723374431     3.9603420904     1.2360025907
Bq         3.0170969735     3.9112072396     0.2477564449
Bq         2.9447172083     3.9357746650     0.7418795178
Bq         2.9309533892     4.0405673655     0.8358425276
Bq         2.9599052953     4.0307403953     0.6381932984
Bq         2.9164774362     4.0454808505     0.9346671422
Bq         2.9743812483     4.0258269102     0.5393686838
Bq         2.9020014831     4.0503943356     1.0334917568
Bq         2.9888572014     4.0209134251     0.4405440693
Bq         2.8875255301     4.0553078207     1.1323163713
Bq         3.0033331544     4.0159999400     0.3417194547
Bq         2.8730495770     4.0602213058     1.2311409859
Bq         3.0178091075     4.0110864550     0.2428948401
Bq         2.9454293423     4.0356538804     0.7370179130
Bq         2.9316655232     4.1404465808     0.8309809228
Bq         2.9606174292     4.1306196107     0.6333316937
Bq         2.9171895701     4.1453600659     0.9298055374
Bq         2.9750933823     4.1257061256     0.5345070791
Bq         2.9027136171     4.1502735510     1.0286301520
Bq         2.9895693353     4.1207926405     0.4356824645
Bq         2.8882376640     4.1551870361     1.1274547666
Bq         3.0040452884     4.1158791554     0.3368578499
Bq         2.8737617110     4.1601005212     1.2262793812
Bq         3.0185212414     4.1109656703     0.2380332353
Bq         2.9461414762     4.1355330958     0.7321563082
Bq         2.9323776571     4.2403257962     0.8261193181
Bq         2.9613295632     4.2304988260     0.6284700889
Bq         2.9179017041     4.2452392813     0.9249439326
Bq         2.9758055162     4.2255853410     0.5296454743
Bq         2.9034257510     4.2501527664     1.0237685472
Bq         2.9902814693     4.2206718559     0.4308208597
Bq         2.8889497980     4.2550662515     1.1225931618
Bq         3.0047574223     4.2157583708     0.3319962451
Bq         2.8744738449     4.2599797365     1.2214177764
Bq         3.0192333754     4.2108448857     0.2331716306
Bq         2.9468536101     4.2354123111     0.7272947035
Bq         2.9330897910     4.3402050116     0.8212577133
Bq         2.9620416971     4.3303780414     0.6236084841
Bq         2.9186138380     4.3451184967     0.9200823279
Bq         2.9765176502     4.3254645563     0.5247838695

1
2
3
4
5
6
7
8
9
10
11
12
13
14
15
16
17
18
19
20
21
22
23
24
25
26
27
28
29
30
31
32
33
34
35
36
37
38
39
40
41
42
43
44
45
46
47
48
49
50
51
52
53
54
55
56
57
58
59
60
61
62
63
64
65
66
67
68
69
70
71
72
73
74
75
76
77
78
79
80
81
82
83
84
85
86
87
88
89
90
91
92
93
94
95
96
97
98
99
100
101
102
103
104
105
106
107
108
109
110
111
112
113
114
115
116
117
118
119
120
121
122
123
124
125
126
127
128
129
130
131
132
133
134
135
136
137
138
139
140
141
142
143
144
145
146
147
148
149
150
151
152
153
154
155
156
157
158
159
160
161
162
163
164
165
166
167
168
169
170
171
172
173
174
175
176
177
178
179
180
181
182
183
184
185
186
187
188
189
190
191
192
193
194
195
196
197
198
199
200
201
202
203
204
205
206
207
208
209
210
211
212
213
214
215
216
217
218
219
220
221
222
223
224
225
226
227
228
229
230
231
232
233
234
235
236

