%nproc=8
%mem=1000MB
# rb3lyp/6-311+g** NMR geom=connectivity

Title

0 1
C    -4.0500558   -0.5771862    0.8136712
H    -5.0263804   -1.0082727    1.0024760
C    -3.9381552    0.6617804    0.2400876
H    -4.8252424    1.2338890   -0.0111295
C    -2.6768410    1.2433246    0.0057578
C    -1.4974121    0.5051527    0.2848253
C    -1.6508332   -0.7338728    0.9404026
H    -0.7713646   -1.2730967    1.2633753
C    -2.8898548   -1.2624035    1.1994307
H    -2.9683706   -2.2124563    1.7152676
C    -2.5773185    2.5963696   -0.4192930
H    -3.4870728    3.1412239   -0.6474055
C    -1.3741895    3.2147896   -0.4364030
H    -1.2997315    4.2742019   -0.6578144
C    -0.1719488    2.4994090   -0.1734588
C    -0.2043917    1.1018437    0.0192689
C     1.0513491    3.2042560   -0.0676222
H     1.0427344    4.2819499   -0.1896997
C     2.1942091    2.5487446    0.2579577
H     3.1168527    3.0912848    0.4334727
C     2.2216473    1.1336562    0.2934990
C     1.0486931    0.3945528    0.0302412
C     3.4483363    0.4614633    0.5573939
H     4.3095794    1.0606054    0.8334846
C     3.5427346   -0.8855926    0.4749463
H     4.4731467   -1.3939704    0.7038822
C     2.4490052   -1.6474447   -0.0196319
C     1.2150704   -1.0057258   -0.3013573
C     0.2531113   -1.7434440   -1.0216591
H    -0.6541356   -1.2535051   -1.3462847
C     0.4494193   -3.0628597   -1.3413779
H    -0.3083162   -3.5944309   -1.9054060
C     1.6251726   -3.7207967   -0.9552541
H     1.7670048   -4.7687404   -1.1927019
C     2.6109872   -3.0144177   -0.3183050
H     3.5525612   -3.4902813   -0.0646367
Bq        -2.4878288367    -1.4276263244     1.5912277467
Bq        -2.4895988146    -1.2102127394     2.0414812311
Bq        -2.4874748411    -1.4711090414     1.5011770498
Bq        -2.4899528101    -1.1667300224     2.1315319280
Bq        -2.4871208455    -1.5145917584     1.4111263529
Bq        -2.4903068057    -1.1232473054     2.2215826249
Bq        -2.4867668500    -1.5580744754     1.3210756560
Bq        -2.4885368278    -1.3406608904     1.7713291405
Bq        -2.4887198911    -1.2071267807     1.8178974563
Bq        -2.4880119000    -1.2940922147     1.6377960625
Bq        -2.4890738867    -1.1636440637     1.9079481532
Bq        -2.4876579044    -1.3375749317     1.5477453657
Bq        -2.4894278823    -1.1201613467     1.9979988501
Bq        -2.4873039088    -1.3810576487     1.4576946688
Bq        -2.4897818779    -1.0766786297     2.0880495470
Bq        -2.4869499133    -1.4245403657     1.3676439719
Bq        -2.4901358734    -1.0331959127     2.1781002438
Bq        -2.4865959177    -1.4680230827     1.2775932750
Bq        -2.4883658956    -1.2506094977     1.7278467594
Bq        -2.4885489589    -1.1170753880     1.7744150753
Bq        -2.4878409677    -1.2040408220     1.5943136815
Bq        -2.4889029544    -1.0735926710     1.8644657722
Bq        -2.4874869721    -1.2475235390     1.5042629846
Bq        -2.4892569500    -1.0301099540     1.9545164690
Bq        -2.4871329766    -1.2910062560     1.4142122877
Bq        -2.4896109456    -0.9866272370     2.0445671659
Bq        -2.4867789810    -1.3344889731     1.3241615909
Bq        -2.4899649412    -0.9431445200     2.1346178628
Bq        -2.4864249854    -1.3779716901     1.2341108940
Bq        -2.4881949633    -1.1605581050     1.6843643784
Bq        -2.4883780266    -1.0270239954     1.7309326942
Bq        -2.4876700354    -1.1139894294     1.5508313005
Bq        -2.4887320222    -0.9835412784     1.8209833911
Bq        -2.4873160399    -1.1574721464     1.4607806036
Bq        -2.4890860177    -0.9400585614     1.9110340880
Bq        -2.4869620443    -1.2009548634     1.3707299067
Bq        -2.4894400133    -0.8965758443     2.0010847849
Bq        -2.4866080487    -1.2444375804     1.2806792098
Bq        -2.4897940089    -0.8530931273     2.0911354818
Bq        -2.4862540531    -1.2879202974     1.1906285129
Bq        -2.4880240310    -1.0705067124     1.6408819974
Bq        -2.4882070943    -0.9369726027     1.6874503132
Bq        -2.4874991032    -1.0239380367     1.5073489194
Bq        -2.4885610899    -0.8934898857     1.7775010101
Bq        -2.4871451076    -1.0674207537     1.4172982226
Bq        -2.4889150855    -0.8500071687     1.8675517070
Bq        -2.4867911120    -1.1109034707     1.3272475257
Bq        -2.4892690810    -0.8065244517     1.9576024039
Bq        -2.4864371164    -1.1543861877     1.2371968288
Bq        -2.4896230766    -0.7630417347     2.0476531007
Bq        -2.4860831209    -1.1978689047     1.1471461319
Bq        -2.4878530987    -0.9804553197     1.5973996163
Bq        -2.4880361620    -0.8469212100     1.6439679322
Bq        -2.4873281709    -0.9338866440     1.4638665384
Bq        -2.4883901576    -0.8034384930     1.7340186291
Bq        -2.4869741753    -0.9773693610     1.3738158415
Bq        -2.4887441532    -0.7599557760     1.8240693259
Bq        -2.4866201797    -1.0208520780     1.2837651446
Bq        -2.4890981488    -0.7164730590     1.9141200228
Bq        -2.4862661842    -1.0643347950     1.1937144478
Bq        -2.4894521443    -0.6729903420     2.0041707197
Bq        -2.4859121886    -1.1078175120     1.1036637509
Bq        -2.4876821665    -0.8904039270     1.5539172353
Bq        -2.4878652298    -0.7568698173     1.6004855511
Bq        -2.4871572386    -0.8438352514     1.4203841574
Bq        -2.4882192253    -0.7133871003     1.6905362480
Bq        -2.4868032430    -0.8873179684     1.3303334605
Bq        -2.4885732209    -0.6699043833     1.7805869449
Bq        -2.4864492475    -0.9308006854     1.2402827636
Bq        -2.4889272165    -0.6264216663     1.8706376418
Bq        -2.4860952519    -0.9742834024     1.1502320667
Bq        -2.4892812121    -0.5829389493     1.9606883387
Bq        -2.4857412563    -1.0177661194     1.0601813699
Bq        -2.4875112342    -0.8003525344     1.5104348543
Bq        -2.4876942975    -0.6668184247     1.5570031701
Bq        -2.4869863063    -0.7537838587     1.3769017763
Bq        -2.4880482931    -0.6233357077     1.6470538670
Bq        -2.4866323108    -0.7972665757     1.2868510795
Bq        -2.4884022886    -0.5798529907     1.7371045639
Bq        -2.4862783152    -0.8407492927     1.1968003826
Bq        -2.4887562842    -0.5363702737     1.8271552608
Bq        -2.4859243196    -0.8842320097     1.1067496857
Bq        -2.4891102798    -0.4928875567     1.9172059576
Bq        -2.4855703241    -0.9277147267     1.0166989888
Bq        -2.4873403019    -0.7103011417     1.4669524732
Bq        -2.4875233652    -0.5767670320     1.5135207891
Bq        -2.4868153741    -0.6637324660     1.3334193953
Bq        -2.4878773608    -0.5332843150     1.6035714860
Bq        -2.4864613785    -0.7072151830     1.2433686984
Bq        -2.4882313564    -0.4898015980     1.6936221828
Bq        -2.4861073829    -0.7506979000     1.1533180016
Bq        -2.4885853519    -0.4463188810     1.7836728797
Bq        -2.4857533874    -0.7941806170     1.0632673047
Bq        -2.4889393475    -0.4028361640     1.8737235766
Bq        -2.4853993918    -0.8376633340     0.9732166078
Bq        -2.4871693696    -0.6202497490     1.4234700922
Bq        -2.4873524329    -0.4867156393     1.4700384080
Bq        -2.4866444418    -0.5736810733     1.2899370143
Bq        -2.4877064285    -0.4432329223     1.5600891049
Bq        -2.4862904462    -0.6171637904     1.1998863174
Bq        -2.4880604241    -0.3997502053     1.6501398018
Bq        -2.4859364506    -0.6606465074     1.1098356205
Bq        -2.4884144197    -0.3562674883     1.7401904987
Bq        -2.4855824551    -0.7041292244     1.0197849236
Bq        -2.4887684152    -0.3127847713     1.8302411956
Bq        -2.4852284595    -0.7476119414     0.9297342268
Bq        -2.4869984374    -0.5301983563     1.3799877112
Bq        -2.4871815007    -0.3966642467     1.4265560270
Bq        -2.4864735095    -0.4836296807     1.2464546333
Bq        -2.4875354962    -0.3531815297     1.5166067239
Bq        -2.4861195139    -0.5271123977     1.1564039364
Bq        -2.4878894918    -0.3096988127     1.6066574208
Bq        -2.4857655184    -0.5705951147     1.0663532395
Bq        -2.4882434874    -0.2662160957     1.6967081177
Bq        -2.4854115228    -0.6140778317     0.9763025426
Bq        -2.4885974830    -0.2227333786     1.7867588145
Bq        -2.4850575272    -0.6575605487     0.8862518457
Bq        -2.4868275051    -0.4401469637     1.3365053301
Bq        -2.4870105684    -0.3066128540     1.3830736460
Bq        -2.4863025772    -0.3935782880     1.2029722522
Bq        -2.4873645640    -0.2631301370     1.4731243429
Bq        -2.4859485817    -0.4370610050     1.1129215553
Bq        -2.4877185595    -0.2196474200     1.5631750397
Bq        -2.4855945861    -0.4805437220     1.0228708585
Bq        -2.4880725551    -0.1761647030     1.6532257366
Bq        -2.4852405905    -0.5240264390     0.9328201616
Bq        -2.4884265507    -0.1326819860     1.7432764335
Bq        -2.4848865950    -0.5675091560     0.8427694647
Bq        -2.4866565728    -0.3500955710     1.2930229491
Bq        -2.4868396361    -0.2165614613     1.3395912650
Bq        -2.4861316450    -0.3035268953     1.1594898712
Bq        -2.4871936317    -0.1730787443     1.4296419618
Bq        -2.4857776494    -0.3470096123     1.0694391743
Bq        -2.4875476273    -0.1295960273     1.5196926587
Bq        -2.4854236538    -0.3904923293     0.9793884774
Bq        -2.4879016228    -0.0861133103     1.6097433556
Bq        -2.4850696583    -0.4339750463     0.8893377805
Bq        -2.4882556184    -0.0426305933     1.6997940525
Bq        -2.4847156627    -0.4774577634     0.7992870837
Bq        -2.4864856405    -0.2600441783     1.2495405681
Bq        -2.4866687038    -0.1265100687     1.2961088839
Bq        -2.4859607127    -0.2134755027     1.1160074902
Bq        -2.4870226994    -0.0830273517     1.3861595808
Bq        -2.4856067171    -0.2569582197     1.0259567933
Bq        -2.4873766950    -0.0395446346     1.4762102777
Bq        -2.4852527216    -0.3004409367     0.9359060964
Bq        -2.4877306906     0.0039380824     1.5662609746
Bq        -2.4848987260    -0.3439236537     0.8458553995
Bq        -2.4880846861     0.0474207994     1.6563116714
Bq        -2.4845447304    -0.3874063707     0.7558047026
Bq        -2.4863147083    -0.1699927857     1.2060581870
Bq        -2.4864977716    -0.0364586760     1.2526265029
Bq        -2.4857897804    -0.1234241100     1.0725251091
Bq        -2.4868517671     0.0070240410     1.3426771998
Bq        -2.4854357849    -0.1669068270     0.9824744122
Bq        -2.4872057627     0.0505067580     1.4327278967
Bq        -2.4850817893    -0.2103895440     0.8924237154
Bq        -2.4875597583     0.0939894750     1.5227785935
Bq        -2.4847277937    -0.2538722610     0.8023730185
Bq        -2.4879137539     0.1374721920     1.6128292904
Bq        -2.4843737981    -0.2973549780     0.7123223216
Bq        -2.4861437760    -0.0799413930     1.1625758060
Bq        -2.4863268393     0.0535927167     1.2091441219
Bq        -2.4856188482    -0.0333727173     1.0290427281
Bq        -2.4866808349     0.0970754337     1.2991948187
Bq        -2.4852648526    -0.0768554343     0.9389920312
Bq        -2.4870348304     0.1405581507     1.3892455156
Bq        -2.4849108570    -0.1203381513     0.8489413343
Bq        -2.4873888260     0.1840408677     1.4792962125
Bq        -2.4845568614    -0.1638208683     0.7588906374
Bq        -2.4877428216     0.2275235847     1.5693469094
Bq        -2.4842028659    -0.2073035853     0.6688399406
Bq        -2.4859728437     0.0101099997     1.1190934250
Bq        -2.4861559070     0.1436441094     1.1656617408
Bq        -2.4854479159     0.0566786753     0.9855603471
Bq        -2.4865099026     0.1871268264     1.2557124377
Bq        -2.4850939203     0.0131959583     0.8955096502
Bq        -2.4868638982     0.2306095434     1.3457631346
Bq        -2.4847399247    -0.0302867587     0.8054589533
Bq        -2.4872178937     0.2740922604     1.4358138315
Bq        -2.4843859292    -0.0737694757     0.7154082564
Bq        -2.4875718893     0.3175749774     1.5258645284
Bq        -2.4840319336    -0.1172521927     0.6253575595
Bq        -2.4858019115     0.1001613924     1.0756110439
Bq        -2.4859849748     0.2336955020     1.1221793598
Bq        -2.4852769836     0.1467300680     0.9420779660
Bq        -2.4863389703     0.2771782190     1.2122300567
Bq        -2.4849229880     0.1032473510     0.8520272691
Bq        -2.4866929659     0.3206609360     1.3022807536
Bq        -2.4845689925     0.0597646340     0.7619765723
Bq        -2.4870469615     0.3641436530     1.3923314504
Bq        -2.4842149969     0.0162819170     0.6719258754
Bq        -2.4874009570     0.4076263700     1.4823821473
Bq        -2.4838610013    -0.0272008000     0.5818751785
Bq        -2.4856309792     0.1902127850     1.0321286629
Bq        -2.4858140425     0.3237468947     1.0786969788
Bq        -2.4851060513     0.2367814607     0.8985955850
Bq        -2.4861680381     0.3672296117     1.1687476756
Bq        -2.4847520558     0.1932987437     0.8085448881
Bq        -2.4865220336     0.4107123287     1.2587983725

1
2
3
4
5
6
7
8
9
10
11
12
13
14
15
16
17
18
19
20
21
22
23
24
25
26
27
28
29
30
31
32
33
34
35
36
37
38
39
40
41
42
43
44
45
46
47
48
49
50
51
52
53
54
55
56
57
58
59
60
61
62
63
64
65
66
67
68
69
70
71
72
73
74
75
76
77
78
79
80
81
82
83
84
85
86
87
88
89
90
91
92
93
94
95
96
97
98
99
100
101
102
103
104
105
106
107
108
109
110
111
112
113
114
115
116
117
118
119
120
121
122
123
124
125
126
127
128
129
130
131
132
133
134
135
136
137
138
139
140
141
142
143
144
145
146
147
148
149
150
151
152
153
154
155
156
157
158
159
160
161
162
163
164
165
166
167
168
169
170
171
172
173
174
175
176
177
178
179
180
181
182
183
184
185
186
187
188
189
190
191
192
193
194
195
196
197
198
199
200
201
202
203
204
205
206
207
208
209
210
211
212
213
214
215
216
217
218
219
220
221
222
223
224
225
226
227
228
229
230
231
232
233
234
235
236

