%nproc=8
%mem=1000MB
# rb3lyp/6-311+g** NMR geom=connectivity

Title

0 1
C    -4.0500558   -0.5771862    0.8136712
H    -5.0263804   -1.0082727    1.0024760
C    -3.9381552    0.6617804    0.2400876
H    -4.8252424    1.2338890   -0.0111295
C    -2.6768410    1.2433246    0.0057578
C    -1.4974121    0.5051527    0.2848253
C    -1.6508332   -0.7338728    0.9404026
H    -0.7713646   -1.2730967    1.2633753
C    -2.8898548   -1.2624035    1.1994307
H    -2.9683706   -2.2124563    1.7152676
C    -2.5773185    2.5963696   -0.4192930
H    -3.4870728    3.1412239   -0.6474055
C    -1.3741895    3.2147896   -0.4364030
H    -1.2997315    4.2742019   -0.6578144
C    -0.1719488    2.4994090   -0.1734588
C    -0.2043917    1.1018437    0.0192689
C     1.0513491    3.2042560   -0.0676222
H     1.0427344    4.2819499   -0.1896997
C     2.1942091    2.5487446    0.2579577
H     3.1168527    3.0912848    0.4334727
C     2.2216473    1.1336562    0.2934990
C     1.0486931    0.3945528    0.0302412
C     3.4483363    0.4614633    0.5573939
H     4.3095794    1.0606054    0.8334846
C     3.5427346   -0.8855926    0.4749463
H     4.4731467   -1.3939704    0.7038822
C     2.4490052   -1.6474447   -0.0196319
C     1.2150704   -1.0057258   -0.3013573
C     0.2531113   -1.7434440   -1.0216591
H    -0.6541356   -1.2535051   -1.3462847
C     0.4494193   -3.0628597   -1.3413779
H    -0.3083162   -3.5944309   -1.9054060
C     1.6251726   -3.7207967   -0.9552541
H     1.7670048   -4.7687404   -1.1927019
C     2.6109872   -3.0144177   -0.3183050
H     3.5525612   -3.4902813   -0.0646367
Bq        -3.1848811864    -0.5675091560     0.8400177371
Bq        -3.1866511642    -0.3500955710     1.2902712215
Bq        -3.1868342275    -0.2165614613     1.3368395374
Bq        -3.1861262364    -0.3035268953     1.1567381436
Bq        -3.1871882231    -0.1730787443     1.4268902342
Bq        -3.1857722408    -0.3470096123     1.0666874467
Bq        -3.1875422187    -0.1295960273     1.5169409311
Bq        -3.1854182452    -0.3904923293     0.9766367498
Bq        -3.1878962143    -0.0861133103     1.6069916280
Bq        -3.1850642497    -0.4339750463     0.8865860529
Bq        -3.1882502098    -0.0426305933     1.6970423249
Bq        -3.1847102541    -0.4774577634     0.7965353561
Bq        -3.1864802320    -0.2600441783     1.2467888405
Bq        -3.1866632953    -0.1265100687     1.2933571563
Bq        -3.1859553041    -0.2134755027     1.1132557626
Bq        -3.1870172908    -0.0830273517     1.3834078532
Bq        -3.1856013085    -0.2569582197     1.0232050657
Bq        -3.1873712864    -0.0395446346     1.4734585501
Bq        -3.1852473130    -0.3004409367     0.9331543688
Bq        -3.1877252820     0.0039380824     1.5635092470
Bq        -3.1848933174    -0.3439236537     0.8431036719
Bq        -3.1880792776     0.0474207994     1.6535599439
Bq        -3.1845393218    -0.3874063707     0.7530529750
Bq        -3.1863092997    -0.1699927857     1.2033064594
Bq        -3.1864923630    -0.0364586760     1.2498747753
Bq        -3.1857843718    -0.1234241100     1.0697733815
Bq        -3.1868463586     0.0070240410     1.3399254722
Bq        -3.1854303763    -0.1669068270     0.9797226846
Bq        -3.1872003541     0.0505067580     1.4299761691
Bq        -3.1850763807    -0.2103895440     0.8896719878
Bq        -3.1875543497     0.0939894750     1.5200268659
Bq        -3.1847223851    -0.2538722610     0.7996212909
Bq        -3.1879083453     0.1374721920     1.6100775628
Bq        -3.1843683895    -0.2973549780     0.7095705940
Bq        -3.1861383674    -0.0799413930     1.1598240784
Bq        -3.1863214307     0.0535927167     1.2063923943
Bq        -3.1856134396    -0.0333727173     1.0262910005
Bq        -3.1866754263     0.0970754337     1.2964430911
Bq        -3.1852594440    -0.0768554343     0.9362403036
Bq        -3.1870294219     0.1405581507     1.3864937880
Bq        -3.1849054484    -0.1203381513     0.8461896067
Bq        -3.1873834174     0.1840408677     1.4765444849
Bq        -3.1845514528    -0.1638208683     0.7561389098
Bq        -3.1877374130     0.2275235847     1.5665951818
Bq        -3.1841974573    -0.2073035853     0.6660882130
Bq        -3.1859674351     0.0101099997     1.1163416974
Bq        -3.1861504984     0.1436441094     1.1629100132
Bq        -3.1854425073     0.0566786753     0.9828086195
Bq        -3.1865044940     0.1871268264     1.2529607101
Bq        -3.1850885117     0.0131959583     0.8927579226
Bq        -3.1868584896     0.2306095434     1.3430114070
Bq        -3.1847345161    -0.0302867587     0.8027072257
Bq        -3.1872124852     0.2740922604     1.4330621039
Bq        -3.1843805206    -0.0737694757     0.7126565288
Bq        -3.1875664807     0.3175749774     1.5231128008
Bq        -3.1840265250    -0.1172521927     0.6226058319
Bq        -3.1857965029     0.1001613924     1.0728593163
Bq        -3.1859795662     0.2336955020     1.1194276322
Bq        -3.1852715750     0.1467300680     0.9393262384
Bq        -3.1863335617     0.2771782190     1.2094783291
Bq        -3.1849175794     0.1032473510     0.8492755415
Bq        -3.1866875573     0.3206609360     1.2995290260
Bq        -3.1845635839     0.0597646340     0.7592248447
Bq        -3.1870415529     0.3641436530     1.3895797228
Bq        -3.1842095883     0.0162819170     0.6691741478
Bq        -3.1873955485     0.4076263700     1.4796304197
Bq        -3.1838555927    -0.0272008000     0.5791234509
Bq        -3.1856255706     0.1902127850     1.0293769353
Bq        -3.1858086339     0.3237468947     1.0759452512
Bq        -3.1851006427     0.2367814607     0.8958438574
Bq        -3.1861626295     0.3672296117     1.1659959480
Bq        -3.1847466472     0.1932987437     0.8057931605
Bq        -3.1865166250     0.4107123287     1.2560466449
Bq        -3.1843926516     0.1498160267     0.7157424636
Bq        -3.1868706206     0.4541950457     1.3460973418
Bq        -3.1840386560     0.1063333097     0.6256917667
Bq        -3.1872246162     0.4976777627     1.4361480387
Bq        -3.1836846604     0.0628505927     0.5356410699
Bq        -3.1854546383     0.2802641777     0.9858945543
Bq        -3.1856377016     0.4137982874     1.0324628701
Bq        -3.1849297105     0.3268328534     0.8523614764
Bq        -3.1859916972     0.4572810044     1.1225135670
Bq        -3.1845757149     0.2833501364     0.7623107795
Bq        -3.1863456928     0.5007637214     1.2125642639
Bq        -3.1842217193     0.2398674194     0.6722600826
Bq        -3.1866996883     0.5442464384     1.3026149608
Bq        -3.1838677237     0.1963847023     0.5822093857
Bq        -3.1870536839     0.5877291554     1.3926656577
Bq        -3.1835137282     0.1529019853     0.4921586888
Bq        -3.1852837060     0.3703155704     0.9424121732
Bq        -3.1854667693     0.5038496800     0.9889804891
Bq        -3.1847587782     0.4168842460     0.8088790953
Bq        -3.1858207649     0.5473323970     1.0790311860
Bq        -3.1844047826     0.3734015290     0.7188283984
Bq        -3.1861747605     0.5908151140     1.1690818829
Bq        -3.1840507870     0.3299188120     0.6287777016
Bq        -3.1865287561     0.6342978311     1.2591325797
Bq        -3.1836967915     0.2864360950     0.5387270047
Bq        -3.1868827516     0.6777805481     1.3491832766
Bq        -3.1833427959     0.2429533780     0.4486763078
Bq        -3.1851127738     0.4603669630     0.8989297922
Bq        -3.1852958371     0.5939010727     0.9454981081
Bq        -3.1845878459     0.5069356387     0.7653967143
Bq        -3.1856498326     0.6373837897     1.0355488049
Bq        -3.1842338503     0.4634529217     0.6753460174
Bq        -3.1860038282     0.6808665067     1.1255995018
Bq        -3.1838798548     0.4199702047     0.5852953205
Bq        -3.1863578238     0.7243492237     1.2156501987
Bq        -3.1835258592     0.3764874877     0.4952446237
Bq        -3.1867118194     0.7678319407     1.3057008956
Bq        -3.1831718636     0.3330047707     0.4051939268
Bq        -3.1849418415     0.5504183557     0.8554474112
Bq        -3.1851249048     0.6839524654     0.9020157270
Bq        -3.1844169136     0.5969870314     0.7219143333
Bq        -3.1854789004     0.7274351824     0.9920664239
Bq        -3.1840629181     0.5535043144     0.6318636364
Bq        -3.1858328959     0.7709178994     1.0821171208
Bq        -3.1837089225     0.5100215974     0.5418129395
Bq        -3.1861868915     0.8144006164     1.1721678177
Bq        -3.1833549269     0.4665388804     0.4517622426
Bq        -3.1865408871     0.8578833334     1.2622185146
Bq        -3.1830009313     0.4230561634     0.3617115457
Bq        -3.1847709092     0.6404697484     0.8119650301
Bq        -3.1849539725     0.7740038581     0.8585333460
Bq        -3.1842459814     0.6870384240     0.6784319522
Bq        -3.1853079681     0.8174865751     0.9485840429
Bq        -3.1838919858     0.6435557070     0.5883812554
Bq        -3.1856619637     0.8609692921     1.0386347398
Bq        -3.1835379902     0.6000729900     0.4983305585
Bq        -3.1860159592     0.9044520091     1.1286854366
Bq        -3.1831839946     0.5565902730     0.4082798616
Bq        -3.1863699548     0.9479347261     1.2187361335
Bq        -3.1828299991     0.5131075560     0.3182291647
Bq        -3.1845999769     0.7305211410     0.7684826491
Bq        -3.1847830402     0.8640552507     0.8150509650
Bq        -3.1840750491     0.7770898167     0.6349495712
Bq        -3.1851370358     0.9075379677     0.9051016618
Bq        -3.1837210535     0.7336070997     0.5448988743
Bq        -3.1854910314     0.9510206847     0.9951523587
Bq        -3.1833670579     0.6901243827     0.4548481774
Bq        -3.1858450270     0.9945034017     1.0852030556
Bq        -3.1830130624     0.6466416657     0.3647974806
Bq        -3.1861990225     1.0379861187     1.1752537525
Bq        -3.1826590668     0.6031589487     0.2747467837
Bq        -3.1844290447     0.8205725337     0.7250002681
Bq        -3.1846121080     0.9541066434     0.7715685839
Bq        -3.1839041168     0.8671412094     0.5914671902
Bq        -3.1849661035     0.9975893604     0.8616192808
Bq        -3.1835501212     0.8236584924     0.5014164933
Bq        -3.1853200991     1.0410720774     0.9516699777
Bq        -3.1831961257     0.7801757754     0.4113657964
Bq        -3.1856740947     1.0845547944     1.0417206746
Bq        -3.1828421301     0.7366930584     0.3213150995
Bq        -3.1860280903     1.1280375114     1.1317713715
Bq        -3.1824881345     0.6932103414     0.2312644026
Bq        -3.1842581124     0.9106239264     0.6815178871
Bq        -3.1844411757     1.0441580361     0.7280862029
Bq        -3.1837331845     0.9571926021     0.5479848091
Bq        -3.1847951713     1.0876407531     0.8181368998
Bq        -3.1833791890     0.9137098850     0.4579341123
Bq        -3.1851491668     1.1311234701     0.9081875967
Bq        -3.1830251934     0.8702271680     0.3678834154
Bq        -3.1855031624     1.1746061871     0.9982382935
Bq        -3.1826711978     0.8267444510     0.2778327185
Bq        -3.1858571580     1.2180889041     1.0882889904
Bq        -3.1823172022     0.7832617340     0.1877820216
Bq        -3.1840871801     1.0006753191     0.6380355060
Bq        -3.1842702434     1.1342094287     0.6846038219
Bq        -3.1835622523     1.0472439947     0.5045024281
Bq        -3.1846242390     1.1776921457     0.7746545188
Bq        -3.1832082567     1.0037612777     0.4144517312
Bq        -3.1849782346     1.2211748627     0.8647052156
Bq        -3.1828542611     0.9602785607     0.3244010343
Bq        -3.1853322301     1.2646575797     0.9547559125
Bq        -3.1825002655     0.9167958437     0.2343503375
Bq        -3.1856862257     1.3081402968     1.0448066094
Bq        -3.1821462700     0.8733131267     0.1442996406
Bq        -3.1839162478     1.0907267117     0.5945531250
Bq        -3.1840993111     1.2242608214     0.6411214408
Bq        -3.1833913200     1.1372953874     0.4610200471
Bq        -3.1844533067     1.2677435384     0.7311721377
Bq        -3.1830373244     1.0938126704     0.3709693502
Bq        -3.1848073023     1.3112262554     0.8212228346
Bq        -3.1826833288     1.0503299534     0.2809186533
Bq        -3.1851612979     1.3547089724     0.9112735315
Bq        -3.1823293333     1.0068472364     0.1908679564
Bq        -3.1855152934     1.3981916894     1.0013242284
Bq        -3.1819753377     0.9633645194     0.1008172595
Bq        -3.1837453156     1.1807781044     0.5510707440
Bq        -3.1839283789     1.3143122141     0.5976390598
Bq        -3.1832203877     1.2273467801     0.4175376660
Bq        -3.1842823744     1.3577949311     0.6876897567
Bq        -3.1828663921     1.1838640631     0.3274869692
Bq        -3.1846363700     1.4012776481     0.7777404536
Bq        -3.1825123966     1.1403813461     0.2374362723
Bq        -3.1849903656     1.4447603651     0.8677911505
Bq        -3.1821584010     1.0968986291     0.1473855754
Bq        -3.1853443612     1.4882430821     0.9578418473
Bq        -3.1818044054     1.0534159120     0.0573348785
Bq        -3.1835743833     1.2708294971     0.5075883629

1
2
3
4
5
6
7
8
9
10
11
12
13
14
15
16
17
18
19
20
21
22
23
24
25
26
27
28
29
30
31
32
33
34
35
36
37
38
39
40
41
42
43
44
45
46
47
48
49
50
51
52
53
54
55
56
57
58
59
60
61
62
63
64
65
66
67
68
69
70
71
72
73
74
75
76
77
78
79
80
81
82
83
84
85
86
87
88
89
90
91
92
93
94
95
96
97
98
99
100
101
102
103
104
105
106
107
108
109
110
111
112
113
114
115
116
117
118
119
120
121
122
123
124
125
126
127
128
129
130
131
132
133
134
135
136
137
138
139
140
141
142
143
144
145
146
147
148
149
150
151
152
153
154
155
156
157
158
159
160
161
162
163
164
165
166
167
168
169
170
171
172
173
174
175
176
177
178
179
180
181
182
183
184
185
186
187
188
189
190
191
192
193
194
195
196
197
198
199
200
201
202
203
204
205
206
207
208
209
210
211
212
213
214
215
216
217
218
219
220
221
222
223
224
225
226
227
228
229
230
231
232
233
234
235
236

