%nproc=8
%mem=1000MB
# rb3lyp/6-311+g** NMR geom=connectivity

Title

0 1
C    -4.0500558   -0.5771862    0.8136712
H    -5.0263804   -1.0082727    1.0024760
C    -3.9381552    0.6617804    0.2400876
H    -4.8252424    1.2338890   -0.0111295
C    -2.6768410    1.2433246    0.0057578
C    -1.4974121    0.5051527    0.2848253
C    -1.6508332   -0.7338728    0.9404026
H    -0.7713646   -1.2730967    1.2633753
C    -2.8898548   -1.2624035    1.1994307
H    -2.9683706   -2.2124563    1.7152676
C    -2.5773185    2.5963696   -0.4192930
H    -3.4870728    3.1412239   -0.6474055
C    -1.3741895    3.2147896   -0.4364030
H    -1.2997315    4.2742019   -0.6578144
C    -0.1719488    2.4994090   -0.1734588
C    -0.2043917    1.1018437    0.0192689
C     1.0513491    3.2042560   -0.0676222
H     1.0427344    4.2819499   -0.1896997
C     2.1942091    2.5487446    0.2579577
H     3.1168527    3.0912848    0.4334727
C     2.2216473    1.1336562    0.2934990
C     1.0486931    0.3945528    0.0302412
C     3.4483363    0.4614633    0.5573939
H     4.3095794    1.0606054    0.8334846
C     3.5427346   -0.8855926    0.4749463
H     4.4731467   -1.3939704    0.7038822
C     2.4490052   -1.6474447   -0.0196319
C     1.2150704   -1.0057258   -0.3013573
C     0.2531113   -1.7434440   -1.0216591
H    -0.6541356   -1.2535051   -1.3462847
C     0.4494193   -3.0628597   -1.3413779
H    -0.3083162   -3.5944309   -1.9054060
C     1.6251726   -3.7207967   -0.9552541
H     1.7670048   -4.7687404   -1.1927019
C     2.6109872   -3.0144177   -0.3183050
H     3.5525612   -3.4902813   -0.0646367
Bq        -4.4843947381     0.3734015290     0.7137180472
Bq        -4.4861647159     0.5908151140     1.1639715316
Bq        -4.4840407425     0.3299188120     0.6236673503
Bq        -4.4865187115     0.6342978311     1.2540222285
Bq        -4.4836867469     0.2864360950     0.5336166534
Bq        -4.4868727071     0.6777805481     1.3440729254
Bq        -4.4833327513     0.2429533780     0.4435659566
Bq        -4.4851027292     0.4603669630     0.8938194410
Bq        -4.4852857925     0.5939010727     0.9403877568
Bq        -4.4845778014     0.5069356387     0.7602863630
Bq        -4.4856397881     0.6373837897     1.0304384537
Bq        -4.4842238058     0.4634529217     0.6702356662
Bq        -4.4859937837     0.6808665067     1.1204891506
Bq        -4.4838698102     0.4199702047     0.5801849693
Bq        -4.4863477792     0.7243492237     1.2105398475
Bq        -4.4835158146     0.3764874877     0.4901342724
Bq        -4.4867017748     0.7678319407     1.3005905443
Bq        -4.4831618191     0.3330047707     0.4000835755
Bq        -4.4849317969     0.5504183557     0.8503370599
Bq        -4.4851148602     0.6839524654     0.8969053758
Bq        -4.4844068691     0.5969870314     0.7168039820
Bq        -4.4854688558     0.7274351824     0.9869560727
Bq        -4.4840528735     0.5535043144     0.6267532851
Bq        -4.4858228514     0.7709178994     1.0770067695
Bq        -4.4836988779     0.5100215974     0.5367025883
Bq        -4.4861768470     0.8144006164     1.1670574664
Bq        -4.4833448824     0.4665388804     0.4466518914
Bq        -4.4865308425     0.8578833334     1.2571081633
Bq        -4.4829908868     0.4230561634     0.3566011945
Bq        -4.4847608647     0.6404697484     0.8068546789
Bq        -4.4849439280     0.7740038581     0.8534229947
Bq        -4.4842359368     0.6870384240     0.6733216010
Bq        -4.4852979235     0.8174865751     0.9434736916
Bq        -4.4838819412     0.6435557070     0.5832709041
Bq        -4.4856519191     0.8609692921     1.0335243885
Bq        -4.4835279457     0.6000729900     0.4932202072
Bq        -4.4860059147     0.9044520091     1.1235750854
Bq        -4.4831739501     0.5565902730     0.4031695103
Bq        -4.4863599103     0.9479347261     1.2136257823
Bq        -4.4828199545     0.5131075560     0.3131188135
Bq        -4.4845899324     0.7305211410     0.7633722979
Bq        -4.4847729957     0.8640552507     0.8099406137
Bq        -4.4840650045     0.7770898167     0.6298392200
Bq        -4.4851269913     0.9075379677     0.8999913106
Bq        -4.4837110090     0.7336070997     0.5397885231
Bq        -4.4854809868     0.9510206847     0.9900420075
Bq        -4.4833570134     0.6901243827     0.4497378262
Bq        -4.4858349824     0.9945034017     1.0800927044
Bq        -4.4830030178     0.6466416657     0.3596871293
Bq        -4.4861889780     1.0379861187     1.1701434012
Bq        -4.4826490222     0.6031589487     0.2696364324
Bq        -4.4844190001     0.8205725337     0.7198899168
Bq        -4.4846020634     0.9541066434     0.7664582327
Bq        -4.4838940723     0.8671412094     0.5863568389
Bq        -4.4849560590     0.9975893604     0.8565089296
Bq        -4.4835400767     0.8236584924     0.4963061420
Bq        -4.4853100546     1.0410720774     0.9465596265
Bq        -4.4831860811     0.7801757754     0.4062554452
Bq        -4.4856640501     1.0845547944     1.0366103233
Bq        -4.4828320855     0.7366930584     0.3162047483
Bq        -4.4860180457     1.1280375114     1.1266610202
Bq        -4.4824780900     0.6932103414     0.2261540514
Bq        -4.4842480678     0.9106239264     0.6764075358
Bq        -4.4844311311     1.0441580361     0.7229758517
Bq        -4.4837231400     0.9571926021     0.5428744579
Bq        -4.4847851267     1.0876407531     0.8130265485
Bq        -4.4833691444     0.9137098850     0.4528237610
Bq        -4.4851391223     1.1311234701     0.9030772454
Bq        -4.4830151488     0.8702271680     0.3627730641
Bq        -4.4854931179     1.1746061871     0.9931279423
Bq        -4.4826611533     0.8267444510     0.2727223672
Bq        -4.4858471134     1.2180889041     1.0831786392
Bq        -4.4823071577     0.7832617340     0.1826716704
Bq        -4.4840771356     1.0006753191     0.6329251548
Bq        -4.4842601989     1.1342094287     0.6794934706
Bq        -4.4835522077     1.0472439947     0.4993920769
Bq        -4.4846141944     1.1776921457     0.7695441675
Bq        -4.4831982121     1.0037612777     0.4093413800
Bq        -4.4849681900     1.2211748627     0.8595948644
Bq        -4.4828442166     0.9602785607     0.3192906831
Bq        -4.4853221856     1.2646575797     0.9496455613
Bq        -4.4824902210     0.9167958437     0.2292399862
Bq        -4.4856761812     1.3081402968     1.0396962582
Bq        -4.4821362254     0.8733131267     0.1391892893
Bq        -4.4839062033     1.0907267117     0.5894427737
Bq        -4.4840892666     1.2242608214     0.6360110896
Bq        -4.4833812754     1.1372953874     0.4559096958
Bq        -4.4844432622     1.2677435384     0.7260617865
Bq        -4.4830272799     1.0938126704     0.3658589989
Bq        -4.4847972577     1.3112262554     0.8161124834
Bq        -4.4826732843     1.0503299534     0.2758083021
Bq        -4.4851512533     1.3547089724     0.9061631802
Bq        -4.4823192887     1.0068472364     0.1857576052
Bq        -4.4855052489     1.3981916894     0.9962138771
Bq        -4.4819652932     0.9633645194     0.0957069083
Bq        -4.4837352710     1.1807781044     0.5459603927
Bq        -4.4839183343     1.3143122141     0.5925287086
Bq        -4.4832103432     1.2273467801     0.4124273148
Bq        -4.4842723299     1.3577949311     0.6825794054
Bq        -4.4828563476     1.1838640631     0.3223766179
Bq        -4.4846263255     1.4012776481     0.7726301023
Bq        -4.4825023520     1.1403813461     0.2323259210
Bq        -4.4849803210     1.4447603651     0.8626807992
Bq        -4.4821483565     1.0968986291     0.1422752241
Bq        -4.4853343166     1.4882430821     0.9527314961
Bq        -4.4817943609     1.0534159120     0.0522245273
Bq        -4.4835643387     1.2708294971     0.5024780117
Bq        -4.4837474020     1.4043636067     0.5490463275
Bq        -4.4830394109     1.3173981727     0.3689449338
Bq        -4.4841013976     1.4478463237     0.6390970244
Bq        -4.4826854153     1.2739154557     0.2788942369
Bq        -4.4844553932     1.4913290408     0.7291477213
Bq        -4.4823314198     1.2304327387     0.1888435400
Bq        -4.4848093888     1.5348117578     0.8191984182
Bq        -4.4819774242     1.1869500217     0.0987928431
Bq        -4.4851633843     1.5782944748     0.9092491151
Bq        -4.4816234286     1.1434673047     0.0087421462
Bq        -4.4833934065     1.3608808897     0.4589956306
Bq        -4.4835764698     1.4944149994     0.5055639465
Bq        -4.4828684786     1.4074495654     0.3254625527
Bq        -4.4839304653     1.5378977164     0.5956146434
Bq        -4.4825144830     1.3639668484     0.2354118558
Bq        -4.4842844609     1.5813804334     0.6856653403
Bq        -4.4821604875     1.3204841314     0.1453611590
Bq        -4.4846384565     1.6248631504     0.7757160371
Bq        -4.4818064919     1.2770014144     0.0553104621
Bq        -4.4849924521     1.6683458674     0.8657667340
Bq        -4.4814524963     1.2335186974    -0.0347402348
Bq        -4.4832224742     1.4509322824     0.4155132496
Bq        -4.4834055375     1.5844663921     0.4620815655
Bq        -4.4826975463     1.4975009581     0.2819801717
Bq        -4.4837595331     1.6279491091     0.5521322623
Bq        -4.4823435508     1.4540182411     0.1919294748
Bq        -4.4841135286     1.6714318261     0.6421829592
Bq        -4.4819895552     1.4105355241     0.1018787779
Bq        -4.4844675242     1.7149145431     0.7322336561
Bq        -4.4816355596     1.3670528071     0.0118280810
Bq        -4.4848215198     1.7583972601     0.8222843530
Bq        -4.4812815641     1.3235700901    -0.0782226158
Bq        -4.4830515419     1.5409836751     0.3720308686
Bq        -4.4832346052     1.6745177848     0.4185991844
Bq        -4.4825266141     1.5875523507     0.2384977907
Bq        -4.4835886008     1.7180005018     0.5086498813
Bq        -4.4821726185     1.5440696337     0.1484470938
Bq        -4.4839425964     1.7614832188     0.5987005782
Bq        -4.4818186229     1.5005869167     0.0583963969
Bq        -4.4842965919     1.8049659358     0.6887512751
Bq        -4.4814646274     1.4571041997    -0.0316543000
Bq        -4.4846505875     1.8484486528     0.7788019720
Bq        -4.4811106318     1.4136214827    -0.1217049969
Bq        -4.4828806096     1.6310350678     0.3285484875
Bq        -4.4830636729     1.7645691774     0.3751168034
Bq        -4.4823556818     1.6776037434     0.1950154096
Bq        -4.4834176685     1.8080518944     0.4651675003
Bq        -4.4820016862     1.6341210264     0.1049647127
Bq        -4.4837716641     1.8515346114     0.5552181972
Bq        -4.4816476907     1.5906383094     0.0149140159
Bq        -4.4841256597     1.8950173284     0.6452688940
Bq        -4.4812936951     1.5471555924    -0.0751366810
Bq        -4.4844796552     1.9385000454     0.7353195909
Bq        -4.4809396995     1.5036728754    -0.1651873779
Bq        -4.4827096774     1.7210864604     0.2850661065
Bq        -4.4828927407     1.8546205701     0.3316344224
Bq        -4.4821847495     1.7676551361     0.1515330286
Bq        -4.4832467362     1.8981032871     0.4216851192
Bq        -4.4818307540     1.7241724191     0.0614823317
Bq        -4.4836007318     1.9415860041     0.5117358161
Bq        -4.4814767584     1.6806897021    -0.0285683652
Bq        -4.4839547274     1.9850687211     0.6017865130
Bq        -4.4811227628     1.6372069851    -0.1186190621
Bq        -4.4843087230     2.0285514381     0.6918372099
Bq        -4.4807687672     1.5937242681    -0.2086697589
Bq        -4.4825387451     1.8111378531     0.2415837255
Bq        -4.4827218084     1.9446719628     0.2881520413
Bq        -4.4820138173     1.8577065288     0.1080506476
Bq        -4.4830758040     1.9881546798     0.3782027382
Bq        -4.4816598217     1.8142238118     0.0179999507
Bq        -4.4834297995     2.0316373968     0.4682534351
Bq        -4.4813058261     1.7707410947    -0.0720507462
Bq        -4.4837837951     2.0751201138     0.5583041320
Bq        -4.4809518305     1.7272583777    -0.1621014431
Bq        -4.4841377907     2.1186028308     0.6483548289
Bq        -4.4805978350     1.6837756607    -0.2521521400
Bq        -4.4823678128     1.9011892458     0.1981013444
Bq        -4.4825508761     2.0347233554     0.2446696603
Bq        -4.4818428850     1.9477579214     0.0645682665
Bq        -4.4829048717     2.0782060724     0.3347203572
Bq        -4.4814888894     1.9042752044    -0.0254824304
Bq        -4.4832588673     2.1216887894     0.4247710541
Bq        -4.4811348938     1.8607924874    -0.1155331272
Bq        -4.4836128628     2.1651715065     0.5148217509
Bq        -4.4807808983     1.8173097704    -0.2055838241
Bq        -4.4839668584     2.2086542235     0.6048724478
Bq        -4.4804269027     1.7738270534    -0.2956345210
Bq        -4.4821968806     1.9912406384     0.1546189634
Bq        -4.4823799439     2.1247747481     0.2011872793
Bq        -4.4816719527     2.0378093141     0.0210858855
Bq        -4.4827339394     2.1682574651     0.2912379761
Bq        -4.4813179571     1.9943265971    -0.0689648114
Bq        -4.4830879350     2.2117401821     0.3812886730

1
2
3
4
5
6
7
8
9
10
11
12
13
14
15
16
17
18
19
20
21
22
23
24
25
26
27
28
29
30
31
32
33
34
35
36
37
38
39
40
41
42
43
44
45
46
47
48
49
50
51
52
53
54
55
56
57
58
59
60
61
62
63
64
65
66
67
68
69
70
71
72
73
74
75
76
77
78
79
80
81
82
83
84
85
86
87
88
89
90
91
92
93
94
95
96
97
98
99
100
101
102
103
104
105
106
107
108
109
110
111
112
113
114
115
116
117
118
119
120
121
122
123
124
125
126
127
128
129
130
131
132
133
134
135
136
137
138
139
140
141
142
143
144
145
146
147
148
149
150
151
152
153
154
155
156
157
158
159
160
161
162
163
164
165
166
167
168
169
170
171
172
173
174
175
176
177
178
179
180
181
182
183
184
185
186
187
188
189
190
191
192
193
194
195
196
197
198
199
200
201
202
203
204
205
206
207
208
209
210
211
212
213
214
215
216
217
218
219
220
221
222
223
224
225
226
227
228
229
230
231
232
233
234
235
236

