%nproc=8
%mem=1000MB
# rb3lyp/6-311+g** NMR geom=connectivity

Title

0 1
C    -4.0500558   -0.5771862    0.8136712
H    -5.0263804   -1.0082727    1.0024760
C    -3.9381552    0.6617804    0.2400876
H    -4.8252424    1.2338890   -0.0111295
C    -2.6768410    1.2433246    0.0057578
C    -1.4974121    0.5051527    0.2848253
C    -1.6508332   -0.7338728    0.9404026
H    -0.7713646   -1.2730967    1.2633753
C    -2.8898548   -1.2624035    1.1994307
H    -2.9683706   -2.2124563    1.7152676
C    -2.5773185    2.5963696   -0.4192930
H    -3.4870728    3.1412239   -0.6474055
C    -1.3741895    3.2147896   -0.4364030
H    -1.2997315    4.2742019   -0.6578144
C    -0.1719488    2.4994090   -0.1734588
C    -0.2043917    1.1018437    0.0192689
C     1.0513491    3.2042560   -0.0676222
H     1.0427344    4.2819499   -0.1896997
C     2.1942091    2.5487446    0.2579577
H     3.1168527    3.0912848    0.4334727
C     2.2216473    1.1336562    0.2934990
C     1.0486931    0.3945528    0.0302412
C     3.4483363    0.4614633    0.5573939
H     4.3095794    1.0606054    0.8334846
C     3.5427346   -0.8855926    0.4749463
H     4.4731467   -1.3939704    0.7038822
C     2.4490052   -1.6474447   -0.0196319
C     1.2150704   -1.0057258   -0.3013573
C     0.2531113   -1.7434440   -1.0216591
H    -0.6541356   -1.2535051   -1.3462847
C     0.4494193   -3.0628597   -1.3413779
H    -0.3083162   -3.5944309   -1.9054060
C     1.6251726   -3.7207967   -0.9552541
H     1.7670048   -4.7687404   -1.1927019
C     2.6109872   -3.0144177   -0.3183050
H     3.5525612   -3.4902813   -0.0646367
Bq        -2.7071392880     3.5572239777    -0.3946893943
Bq        -2.7340331573     3.7290691993     0.2833562823
Bq        -2.7032973067     3.5326746603    -0.4915530624
Bq        -2.7378751386     3.7536185167     0.3802199504
Bq        -2.6994553253     3.5081253430    -0.5884167305
Bq        -2.7186652320     3.6308719298    -0.1040983900
Bq        -2.7215342591     3.7523610792    -0.0317647514
Bq        -2.7138502964     3.7032624444    -0.2254920876
Bq        -2.7253762404     3.7769103965     0.0650989167
Bq        -2.7100083151     3.6787131270    -0.3223557557
Bq        -2.7292182218     3.8014597139     0.1619625848
Bq        -2.7061663338     3.6541638097    -0.4192194237
Bq        -2.7330602031     3.8260090313     0.2588262529
Bq        -2.7023243525     3.6296144923    -0.5160830918
Bq        -2.7369021844     3.8505583487     0.3556899210
Bq        -2.6984823711     3.6050651749    -0.6129467599
Bq        -2.7176922778     3.7278117618    -0.1286284195
Bq        -2.7205613049     3.8493009111    -0.0562947808
Bq        -2.7128773422     3.8002022763    -0.2500221170
Bq        -2.7244032862     3.8738502285     0.0405688873
Bq        -2.7090353609     3.7756529590    -0.3468857851
Bq        -2.7282452675     3.8983995458     0.1374325554
Bq        -2.7051933796     3.7511036416    -0.4437494532
Bq        -2.7320872489     3.9229488632     0.2342962235
Bq        -2.7013513982     3.7265543242    -0.5406131213
Bq        -2.7359292302     3.9474981806     0.3311598916
Bq        -2.6975094169     3.7020050068    -0.6374767893
Bq        -2.7167193235     3.8247515937    -0.1531584489
Bq        -2.7195883506     3.9462407430    -0.0808248102
Bq        -2.7119043880     3.8971421083    -0.2745521464
Bq        -2.7234303320     3.9707900604     0.0160388579
Bq        -2.7080624067     3.8725927909    -0.3714158145
Bq        -2.7272723133     3.9953393778     0.1129025259
Bq        -2.7042204253     3.8480434735    -0.4682794826
Bq        -2.7311142946     4.0198886952     0.2097661940
Bq        -2.7003784440     3.8234941562    -0.5651431507
Bq        -2.7349562760     4.0444380125     0.3066298621
Bq        -2.6965364627     3.7989448388    -0.6620068188
Bq        -2.7157463693     3.9216914257    -0.1776884783
Bq        -2.7186153964     4.0431805750    -0.1053548397
Bq        -2.7109314338     3.9940819402    -0.2990821758
Bq        -2.7224573778     4.0677298924    -0.0084911716
Bq        -2.7070894524     3.9695326228    -0.3959458439
Bq        -2.7262993591     4.0922792097     0.0883724965
Bq        -2.7032474711     3.9449833055    -0.4928095120
Bq        -2.7301413404     4.1168285271     0.1852361646
Bq        -2.6994054898     3.9204339881    -0.5896731801
Bq        -2.7339833217     4.1413778445     0.2820998327
Bq        -2.6955635084     3.8958846707    -0.6865368482
Bq        -2.7147734151     4.0186312576    -0.2022185078
Bq        -2.7176424422     4.1401204069    -0.1298848691
Bq        -2.7099584795     4.0910217722    -0.3236122053
Bq        -2.7214844235     4.1646697243    -0.0330212010
Bq        -2.7061164982     4.0664724548    -0.4204758734
Bq        -2.7253264049     4.1892190417     0.0638424671
Bq        -2.7022745169     4.0419231374    -0.5173395414
Bq        -2.7291683862     4.2137683590     0.1607061352
Bq        -2.6984325356     4.0173738200    -0.6142032095
Bq        -2.7330103675     4.2383176764     0.2575698033
Bq        -2.6945905542     3.9928245027    -0.7110668776
Bq        -2.7138004609     4.1155710895    -0.2267485372
Bq        -2.7166694880     4.2370602389    -0.1544148985
Bq        -2.7089855253     4.1879616041    -0.3481422347
Bq        -2.7205114693     4.2616095562    -0.0575512304
Bq        -2.7051435440     4.1634122867    -0.4450059028
Bq        -2.7243534506     4.2861588736     0.0393124377
Bq        -2.7013015627     4.1388629694    -0.5418695709
Bq        -2.7281954320     4.3107081910     0.1361761058
Bq        -2.6974595813     4.1143136520    -0.6387332390
Bq        -2.7320374133     4.3352575084     0.2330397738
Bq        -2.6936176000     4.0897643346    -0.7355969071
Bq        -2.7128275066     4.2125109215    -0.2512785666
Bq        -2.7156965337     4.3340000708    -0.1789449279
Bq        -2.7080125711     4.2849014360    -0.3726722641
Bq        -2.7195385151     4.3585493882    -0.0820812599
Bq        -2.7041705898     4.2603521187    -0.4695359322
Bq        -2.7233804964     4.3830987055     0.0147824082
Bq        -2.7003286084     4.2358028013    -0.5663996003
Bq        -2.7272224777     4.4076480229     0.1116460763
Bq        -2.6964866271     4.2112534839    -0.6632632684
Bq        -2.7310644591     4.4321973403     0.2085097444
Bq        -2.6926446458     4.1867041665    -0.7601269365
Bq        -2.7118545524     4.3094507534    -0.2758085960
Bq        -2.7147235795     4.4309399027    -0.2034749574
Bq        -2.7070396169     4.3818412680    -0.3972022936
Bq        -2.7185655609     4.4554892201    -0.1066112893
Bq        -2.7031976355     4.3572919506    -0.4940659616
Bq        -2.7224075422     4.4800385375    -0.0097476212
Bq        -2.6993556542     4.3327426332    -0.5909296297
Bq        -2.7262495235     4.5045878549     0.0871160469
Bq        -2.6955136729     4.3081933159    -0.6877932978
Bq        -2.7300915048     4.5291371722     0.1839797150
Bq        -2.6916716916     4.2836439985    -0.7846569659
Bq        -2.7108815982     4.4063905854    -0.3003386255
Bq        -2.6634498589    -0.4160516942     1.0269897778
Bq        -2.6557658963    -0.4651503290     0.8332624417
Bq        -2.6672918402    -0.3915023768     1.1238534459
Bq        -2.6519239149    -0.4896996464     0.7363987736
Bq        -2.6711338216    -0.3669530595     1.2207171140
Bq        -2.6480819336    -0.5142489637     0.6395351055
Bq        -2.6749758029    -0.3424037421     1.3175807821
Bq        -2.6442399523    -0.5387982811     0.5426714374
Bq        -2.6788177842    -0.3178544247     1.4144444502
Bq        -2.6403979709    -0.5633475985     0.4458077693
Bq        -2.6596078776    -0.4406010116     0.9301261098
Bq        -2.6624769047    -0.3191118623     1.0024597484
Bq        -2.6547929420    -0.3682104970     0.8087324122
Bq        -2.6663188860    -0.2945625449     1.0993234165
Bq        -2.6509509607    -0.3927598144     0.7118687442
Bq        -2.6701608673    -0.2700132275     1.1961870846
Bq        -2.6471089794    -0.4173091318     0.6150050761
Bq        -2.6740028487    -0.2454639102     1.2930507527
Bq        -2.6432669980    -0.4418584492     0.5181414080
Bq        -2.6778448300    -0.2209145928     1.3899144208
Bq        -2.6394250167    -0.4664077665     0.4212777399
Bq        -2.6586349234    -0.3436611797     0.9055960803
Bq        -2.6615039505    -0.2221720303     0.9779297190
Bq        -2.6538199878    -0.2712706651     0.7842023828
Bq        -2.6653459318    -0.1976227130     1.0747933871
Bq        -2.6499780065    -0.2958199825     0.6873387147
Bq        -2.6691879131    -0.1730733956     1.1716570552
Bq        -2.6461360251    -0.3203692998     0.5904750466
Bq        -2.6730298945    -0.1485240782     1.2685207233
Bq        -2.6422940438    -0.3449186172     0.4936113785
Bq        -2.6768718758    -0.1239747608     1.3653843914
Bq        -2.6384520625    -0.3694679346     0.3967477105
Bq        -2.6576619691    -0.2467213477     0.8810660509
Bq        -2.6605309962    -0.1252321984     0.9533996896
Bq        -2.6528470336    -0.1743308332     0.7596723534
Bq        -2.6643729776    -0.1006828810     1.0502633577
Bq        -2.6490050523    -0.1988801505     0.6628086853
Bq        -2.6682149589    -0.0761335637     1.1471270257
Bq        -2.6451630709    -0.2234294679     0.5659450172
Bq        -2.6720569402    -0.0515842463     1.2439906938
Bq        -2.6413210896    -0.2479787853     0.4690813491
Bq        -2.6758989216    -0.0270349289     1.3408543619
Bq        -2.6374791083    -0.2725281027     0.3722176810
Bq        -2.6566890149    -0.1497815158     0.8565360215
Bq        -2.6595580420    -0.0282923665     0.9288696601
Bq        -2.6518740794    -0.0773910012     0.7351423240
Bq        -2.6634000233    -0.0037430491     1.0257333282
Bq        -2.6480320980    -0.1019403186     0.6382786559
Bq        -2.6672420047     0.0208062683     1.1225969963
Bq        -2.6441901167    -0.1264896360     0.5414149878
Bq        -2.6710839860     0.0453555857     1.2194606644
Bq        -2.6403481354    -0.1510389533     0.4445513197
Bq        -2.6749259673     0.0699049030     1.3163243325
Bq        -2.6365061540    -0.1755882707     0.3476876516
Bq        -2.6557160607    -0.0528416838     0.8320059921
Bq        -2.6585850878     0.0686474655     0.9043396307
Bq        -2.6509011251     0.0195488307     0.7106122945
Bq        -2.6624270691     0.0931967828     1.0012032988
Bq        -2.6470591438    -0.0050004867     0.6137486264
Bq        -2.6662690505     0.1177461002     1.0980669669
Bq        -2.6432171625    -0.0295498040     0.5168849584
Bq        -2.6701110318     0.1422954176     1.1949306350
Bq        -2.6393751811    -0.0540991214     0.4200212903
Bq        -2.6739530131     0.1668447350     1.2917943031
Bq        -2.6355331998    -0.0786484388     0.3231576222
Bq        -2.6547431065     0.0440981481     0.8074759626
Bq        -2.6576121336     0.1655872974     0.8798096013
Bq        -2.6499281709     0.1164886627     0.6860822651
Bq        -2.6614541149     0.1901366148     0.9766732694
Bq        -2.6460861896     0.0919393453     0.5892185970
Bq        -2.6652960962     0.2146859322     1.0735369375
Bq        -2.6422442083     0.0673900279     0.4923549289
Bq        -2.6691380776     0.2392352495     1.1704006056
Bq        -2.6384022269     0.0428407105     0.3954912608
Bq        -2.6729800589     0.2637845669     1.2672642736
Bq        -2.6345602456     0.0182913932     0.2986275927
Bq        -2.6537701522     0.1410379800     0.7829459332
Bq        -2.6566391793     0.2625271294     0.8552795719
Bq        -2.6489552167     0.2134284946     0.6615522357
Bq        -2.6604811607     0.2870764467     0.9521432399
Bq        -2.6451132354     0.1888791772     0.5646885676
Bq        -2.6643231420     0.3116257641     1.0490069080
Bq        -2.6412712540     0.1643298598     0.4678248995
Bq        -2.6681651233     0.3361750815     1.1458705761
Bq        -2.6374292727     0.1397805425     0.3709612314
Bq        -2.6720071047     0.3607243989     1.2427342442
Bq        -2.6335872914     0.1152312251     0.2740975633
Bq        -2.6527971980     0.2379778120     0.7584159038
Bq        -2.6556662251     0.3594669613     0.8307495424
Bq        -2.6479822625     0.3103683265     0.6370222063
Bq        -2.6595082064     0.3840162787     0.9276132105
Bq        -2.6441402811     0.2858190092     0.5401585382
Bq        -2.6633501878     0.4085655960     1.0244768786
Bq        -2.6402982998     0.2612696918     0.4432948701
Bq        -2.6671921691     0.4331149134     1.1213405467
Bq        -2.6364563185     0.2367203744     0.3464312020
Bq        -2.6710341504     0.4576642308     1.2182042148
Bq        -2.6326143371     0.2121710570     0.2495675339
Bq        -2.6518242438     0.3349176439     0.7338858743
Bq        -2.6546932709     0.4564067932     0.8062195130
Bq        -2.6470093082     0.4073081585     0.6124921768
Bq        -2.6585352522     0.4809561106     0.9030831811
Bq        -2.6431673269     0.3827588411     0.5156285087
Bq        -2.6623772336     0.5055054280     0.9999468492
Bq        -2.6393253456     0.3582095237     0.4187648406
Bq        -2.6662192149     0.5300547454     1.0968105173

1
2
3
4
5
6
7
8
9
10
11
12
13
14
15
16
17
18
19
20
21
22
23
24
25
26
27
28
29
30
31
32
33
34
35
36
37
38
39
40
41
42
43
44
45
46
47
48
49
50
51
52
53
54
55
56
57
58
59
60
61
62
63
64
65
66
67
68
69
70
71
72
73
74
75
76
77
78
79
80
81
82
83
84
85
86
87
88
89
90
91
92
93
94
95
96
97
98
99
100
101
102
103
104
105
106
107
108
109
110
111
112
113
114
115
116
117
118
119
120
121
122
123
124
125
126
127
128
129
130
131
132
133
134
135
136
137
138
139
140
141
142
143
144
145
146
147
148
149
150
151
152
153
154
155
156
157
158
159
160
161
162
163
164
165
166
167
168
169
170
171
172
173
174
175
176
177
178
179
180
181
182
183
184
185
186
187
188
189
190
191
192
193
194
195
196
197
198
199
200
201
202
203
204
205
206
207
208
209
210
211
212
213
214
215
216
217
218
219
220
221
222
223
224
225
226
227
228
229
230
231
232
233
234
235
236

