%nproc=8
%mem=1000MB
# rb3lyp/6-311+g** NMR geom=connectivity

Title

0 1
C    -4.0500558   -0.5771862    0.8136712
H    -5.0263804   -1.0082727    1.0024760
C    -3.9381552    0.6617804    0.2400876
H    -4.8252424    1.2338890   -0.0111295
C    -2.6768410    1.2433246    0.0057578
C    -1.4974121    0.5051527    0.2848253
C    -1.6508332   -0.7338728    0.9404026
H    -0.7713646   -1.2730967    1.2633753
C    -2.8898548   -1.2624035    1.1994307
H    -2.9683706   -2.2124563    1.7152676
C    -2.5773185    2.5963696   -0.4192930
H    -3.4870728    3.1412239   -0.6474055
C    -1.3741895    3.2147896   -0.4364030
H    -1.2997315    4.2742019   -0.6578144
C    -0.1719488    2.4994090   -0.1734588
C    -0.2043917    1.1018437    0.0192689
C     1.0513491    3.2042560   -0.0676222
H     1.0427344    4.2819499   -0.1896997
C     2.1942091    2.5487446    0.2579577
H     3.1168527    3.0912848    0.4334727
C     2.2216473    1.1336562    0.2934990
C     1.0486931    0.3945528    0.0302412
C     3.4483363    0.4614633    0.5573939
H     4.3095794    1.0606054    0.8334846
C     3.5427346   -0.8855926    0.4749463
H     4.4731467   -1.3939704    0.7038822
C     2.4490052   -1.6474447   -0.0196319
C     1.2150704   -1.0057258   -0.3013573
C     0.2531113   -1.7434440   -1.0216591
H    -0.6541356   -1.2535051   -1.3462847
C     0.4494193   -3.0628597   -1.3413779
H    -0.3083162   -3.5944309   -1.9054060
C     1.6251726   -3.7207967   -0.9552541
H     1.7670048   -4.7687404   -1.1927019
C     2.6109872   -3.0144177   -0.3183050
H     3.5525612   -3.4902813   -0.0646367
Bq         1.4422310388    -1.8341784316     0.5309179142
Bq         1.7611251491    -1.6212532227    -0.1711998835
Bq         1.4023692750    -1.8607940827     0.6186826389
Bq         1.8009869129    -1.5946375716    -0.2589646082
Bq         1.6016780940    -1.7277158272     0.1798590154
Bq         1.5508098568    -1.6579384956     0.2918569905
Bq         1.6305333844    -1.6047071934     0.1163275411
Bq         1.5109480930    -1.6845541467     0.3796217153
Bq         1.6703951482    -1.5780915422     0.0285628164
Bq         1.4710863293    -1.7111697978     0.4673864400
Bq         1.7102569120    -1.5514758911    -0.0592019083
Bq         1.4312245655    -1.7377854489     0.5551511647
Bq         1.7501186758    -1.5248602400    -0.1469666330
Bq         1.3913628017    -1.7644011000     0.6429158894
Bq         1.7899804396    -1.4982445889    -0.2347313577
Bq         1.5906716206    -1.6313228445     0.2040922658
Bq         1.5398033835    -1.5615455129     0.3160902410
Bq         1.6195269110    -1.5083142106     0.1405607916
Bq         1.4999416197    -1.5881611640     0.4038549657
Bq         1.6593886748    -1.4816985595     0.0527960669
Bq         1.4600798559    -1.6147768151     0.4916196904
Bq         1.6992504386    -1.4550829084    -0.0349686579
Bq         1.4202180921    -1.6413924662     0.5793844151
Bq         1.7391122024    -1.4284672573    -0.1227333826
Bq         1.3803563283    -1.6680081173     0.6671491398
Bq         1.7789739662    -1.4018516062    -0.2104981073
Bq         1.5796651472    -1.5349298617     0.2283255163
Bq         1.5287969101    -1.4651525301     0.3403234915
Bq         1.6085204377    -1.4119212279     0.1647940420
Bq         1.4889351463    -1.4917681812     0.4280882162
Bq         1.6483822014    -1.3853055768     0.0770293173
Bq         1.4490733825    -1.5183838324     0.5158529409
Bq         1.6882439652    -1.3586899257    -0.0107354074
Bq         1.4092116187    -1.5449994835     0.6036176656
Bq         1.7281057290    -1.3320742746    -0.0985001321
Bq         1.3693498549    -1.5716151346     0.6913823903
Bq         1.7679674928    -1.3054586235    -0.1862648568
Bq         1.5686586739    -1.4385368790     0.2525587667
Bq         1.5177904367    -1.3687595474     0.3645567419
Bq         1.5975139643    -1.3155282452     0.1890272925
Bq         1.4779286729    -1.3953751985     0.4523214666
Bq         1.6373757281    -1.2889125941     0.1012625678
Bq         1.4380669091    -1.4219908496     0.5400861913
Bq         1.6772374919    -1.2622969430     0.0134978431
Bq         1.3982051453    -1.4486065008     0.6278509161
Bq         1.7170992556    -1.2356812919    -0.0742668816
Bq         1.3583433816    -1.4752221519     0.7156156408
Bq         1.7569610194    -1.2090656408    -0.1620316064
Bq         1.5576522005    -1.3421438963     0.2767920172
Bq         1.5067839633    -1.2723665647     0.3887899924
Bq         1.5865074909    -1.2191352625     0.2132605429
Bq         1.4669221996    -1.2989822158     0.4765547171
Bq         1.6263692547    -1.1925196114     0.1254958182
Bq         1.4270604358    -1.3255978669     0.5643194418
Bq         1.6662310185    -1.1659039603     0.0377310935
Bq         1.3871986720    -1.3522135180     0.6520841665
Bq         1.7060927823    -1.1392883092    -0.0500336312
Bq         1.3473369082    -1.3788291691     0.7398488912
Bq         1.7459545461    -1.1126726581    -0.1377983559
Bq         1.5466457271    -1.2457509136     0.3010252677
Bq         1.4957774900    -1.1759735820     0.4130232428
Bq         1.5755010175    -1.1227422798     0.2374937934
Bq         1.4559157262    -1.2025892331     0.5007879675
Bq         1.6153627813    -1.0961266287     0.1497290687
Bq         1.4160539624    -1.2292048842     0.5885526923
Bq         1.6552245451    -1.0695109776     0.0619643440
Bq         1.3761921986    -1.2558205353     0.6763174170
Bq         1.6950863089    -1.0428953265    -0.0258003807
Bq         1.3363304348    -1.2824361864     0.7640821417
Bq         1.7349480727    -1.0162796754    -0.1135651054
Bq         1.5356392538    -1.1493579309     0.3252585181
Bq         1.4847710166    -1.0795805993     0.4372564933
Bq         1.5644945442    -1.0263492971     0.2617270439
Bq         1.4449092528    -1.1061962504     0.5250212180
Bq         1.6043563080    -0.9997336460     0.1739623191
Bq         1.4050474890    -1.1328119015     0.6127859427
Bq         1.6442180717    -0.9731179949     0.0861975944
Bq         1.3651857252    -1.1594275526     0.7005506674
Bq         1.6840798355    -0.9465023438    -0.0015671303
Bq         1.3253239614    -1.1860432037     0.7883153921
Bq         1.7239415993    -0.9198866927    -0.0893318550
Bq         1.5246327804    -1.0529649482     0.3494917686
Bq         1.4737645432    -0.9831876166     0.4614897437
Bq         1.5534880708    -0.9299563144     0.2859602943
Bq         1.4339027794    -1.0098032677     0.5492544685
Bq         1.5933498346    -0.9033406633     0.1981955696
Bq         1.3940410156    -1.0364189188     0.6370191932
Bq         1.6332115984    -0.8767250122     0.1104308449
Bq         1.3541792519    -1.0630345699     0.7247839179
Bq         1.6730733622    -0.8501093610     0.0226661202
Bq         1.3143174881    -1.0896502210     0.8125486426
Bq         1.7129351259    -0.8234937099    -0.0650986045
Bq         1.5136263070    -0.9565719655     0.3737250190
Bq         1.4627580699    -0.8867946339     0.4857229942
Bq         1.5424815974    -0.8335633317     0.3101935448
Bq         1.4228963061    -0.9134102850     0.5734877189
Bq         1.5823433612    -0.8069476805     0.2224288201
Bq         1.3830345423    -0.9400259361     0.6612524436
Bq         1.6222051250    -0.7803320294     0.1346640954
Bq         1.3431727785    -0.9666415872     0.7490171683
Bq         1.6620668888    -0.7537163783     0.0468993706
Bq         1.3033110147    -0.9932572383     0.8367818931
Bq         1.7019286526    -0.7271007272    -0.0408653541
Bq         1.5026198336    -0.8601789828     0.3979582695
Bq         1.4517515965    -0.7904016512     0.5099562447
Bq         1.5314751241    -0.7371703489     0.3344267952
Bq         1.4118898327    -0.8170173023     0.5977209694
Bq         1.5713368878    -0.7105546978     0.2466620705
Bq         1.3720280689    -0.8436329534     0.6854856941
Bq         1.6111986516    -0.6839390467     0.1588973458
Bq         1.3321663051    -0.8702486045     0.7732504188
Bq         1.6510604154    -0.6573233956     0.0711326211
Bq         1.2923045413    -0.8968642556     0.8610151435
Bq         1.6909221792    -0.6307077445    -0.0166321036
Bq         1.4916133603    -0.7637860000     0.4221915199
Bq         1.4407451231    -0.6940086684     0.5341894951
Bq         1.5204686507    -0.6407773662     0.3586600457
Bq         1.4008833593    -0.7206243196     0.6219542198
Bq         1.5603304145    -0.6141617151     0.2708953210
Bq         1.3610215955    -0.7472399707     0.7097189445
Bq         1.6001921783    -0.5875460640     0.1831305963
Bq         1.3211598317    -0.7738556218     0.7974836693
Bq         1.6400539420    -0.5609304129     0.0953658716
Bq         1.2812980680    -0.8004712729     0.8852483940
Bq         1.6799157058    -0.5343147618     0.0076011468
Bq         1.4806068869    -0.6673930173     0.4464247704
Bq         1.4297386497    -0.5976156857     0.5584227456
Bq         1.5094621773    -0.5443843835     0.3828932962
Bq         1.3898768859    -0.6242313368     0.6461874703
Bq         1.5493239411    -0.5177687324     0.2951285714
Bq         1.3500151222    -0.6508469879     0.7339521950
Bq         1.5891857049    -0.4911530813     0.2073638467
Bq         1.3101533584    -0.6774626391     0.8217169197
Bq         1.6290474687    -0.4645374302     0.1195991220
Bq         1.2702915946    -0.7040782902     0.9094816444
Bq         1.6689092325    -0.4379217791     0.0318343973
Bq         1.4696004135    -0.5710000346     0.4706580209
Bq         1.4187321764    -0.5012227030     0.5826559960
Bq         1.4984557039    -0.4479914008     0.4071265466
Bq         1.3788704126    -0.5278383541     0.6704207207
Bq         1.5383174677    -0.4213757497     0.3193618219
Bq         1.3390086488    -0.5544540052     0.7581854455
Bq         1.5781792315    -0.3947600986     0.2315970972
Bq         1.2991468850    -0.5810696563     0.8459501702
Bq         1.6180409953    -0.3681444475     0.1438323725
Bq         1.2592851212    -0.6076853074     0.9337148949
Bq         1.6579027591    -0.3415287964     0.0560676478
Bq         1.4585939401    -0.4746070519     0.4948912713
Bq         1.4077257030    -0.4048297203     0.6068892465
Bq         1.4874492306    -0.3515984181     0.4313597971
Bq         1.3678639392    -0.4314453714     0.6946539712
Bq         1.5273109944    -0.3249827670     0.3435950724
Bq         1.3280021754    -0.4580610225     0.7824186959
Bq         1.5671727581    -0.2983671159     0.2558303476
Bq         1.2881404116    -0.4846766736     0.8701834206
Bq         1.6070345219    -0.2717514648     0.1680656229
Bq         1.2482786478    -0.5112923247     0.9579481453
Bq         1.6468962857    -0.2451358137     0.0803008982
Bq         1.4475874668    -0.3782140692     0.5191245218
Bq         1.3967192296    -0.3084367376     0.6311224970
Bq         1.4764427572    -0.2552054354     0.4555930475
Bq         1.3568574658    -0.3350523887     0.7188872217
Bq         1.5163045210    -0.2285897843     0.3678283228
Bq         1.3169957020    -0.3616680398     0.8066519464
Bq         1.5561662848    -0.2019741332     0.2800635981
Bq         1.2771339383    -0.3882836909     0.8944166711
Bq         1.5960280486    -0.1753584821     0.1922988734
Bq         1.2372721745    -0.4148993420     0.9821813958
Bq         1.6358898123    -0.1487428310     0.1045341487
Bq         1.4365809934    -0.2818210865     0.5433577722
Bq         1.3857127562    -0.2120437549     0.6553557474
Bq         1.4654362838    -0.1588124527     0.4798262980
Bq         1.3458509925    -0.2386594060     0.7431204721
Bq         1.5052980476    -0.1321968016     0.3920615733
Bq         1.3059892287    -0.2652750571     0.8308851968
Bq         1.5451598114    -0.1055811505     0.3042968486
Bq         1.2661274649    -0.2918907082     0.9186499215
Bq         1.5850215752    -0.0789654993     0.2165321238
Bq         1.2262657011    -0.3185063593     1.0064146463
Bq         1.6248833390    -0.0523498482     0.1287673991
Bq         1.4255745200    -0.1854281038     0.5675910227
Bq         1.3747062829    -0.1156507722     0.6795889979
Bq         1.4544298104    -0.0624194700     0.5040595484
Bq         1.3348445191    -0.1422664233     0.7673537226
Bq         1.4942915742    -0.0358038189     0.4162948237
Bq         1.2949827553    -0.1688820744     0.8551184473
Bq         1.5341533380    -0.0091881677     0.3285300990
Bq         1.2551209915    -0.1954977255     0.9428831720
Bq         1.5740151018     0.0174274834     0.2407653743
Bq         1.2152592277    -0.2221133766     1.0306478967
Bq         1.6138768656     0.0440431345     0.1530006496
Bq         1.4145680467    -0.0890351211     0.5918242732
Bq         2.0160788248    -4.9352999078    -0.4907201374
Bq         2.0958023524    -4.8820686056    -0.6662495868
Bq         1.9762170610    -4.9619155589    -0.4029554127
Bq         2.1356641162    -4.8554529545    -0.7540143115
Bq         1.9363552972    -4.9885312100    -0.3151906880
Bq         2.1755258799    -4.8288373034    -0.8417790363
Bq         1.8964935334    -5.0151468611    -0.2274259633
Bq         2.2153876437    -4.8022216522    -0.9295437610

1
2
3
4
5
6
7
8
9
10
11
12
13
14
15
16
17
18
19
20
21
22
23
24
25
26
27
28
29
30
31
32
33
34
35
36
37
38
39
40
41
42
43
44
45
46
47
48
49
50
51
52
53
54
55
56
57
58
59
60
61
62
63
64
65
66
67
68
69
70
71
72
73
74
75
76
77
78
79
80
81
82
83
84
85
86
87
88
89
90
91
92
93
94
95
96
97
98
99
100
101
102
103
104
105
106
107
108
109
110
111
112
113
114
115
116
117
118
119
120
121
122
123
124
125
126
127
128
129
130
131
132
133
134
135
136
137
138
139
140
141
142
143
144
145
146
147
148
149
150
151
152
153
154
155
156
157
158
159
160
161
162
163
164
165
166
167
168
169
170
171
172
173
174
175
176
177
178
179
180
181
182
183
184
185
186
187
188
189
190
191
192
193
194
195
196
197
198
199
200
201
202
203
204
205
206
207
208
209
210
211
212
213
214
215
216
217
218
219
220
221
222
223
224
225
226
227
228
229
230
231
232
233
234
235
236

