%nproc=8
%mem=1000MB
# rb3lyp/6-311+g** NMR geom=connectivity

Title

0 1
C    -4.0500558   -0.5771862    0.8136712
H    -5.0263804   -1.0082727    1.0024760
C    -3.9381552    0.6617804    0.2400876
H    -4.8252424    1.2338890   -0.0111295
C    -2.6768410    1.2433246    0.0057578
C    -1.4974121    0.5051527    0.2848253
C    -1.6508332   -0.7338728    0.9404026
H    -0.7713646   -1.2730967    1.2633753
C    -2.8898548   -1.2624035    1.1994307
H    -2.9683706   -2.2124563    1.7152676
C    -2.5773185    2.5963696   -0.4192930
H    -3.4870728    3.1412239   -0.6474055
C    -1.3741895    3.2147896   -0.4364030
H    -1.2997315    4.2742019   -0.6578144
C    -0.1719488    2.4994090   -0.1734588
C    -0.2043917    1.1018437    0.0192689
C     1.0513491    3.2042560   -0.0676222
H     1.0427344    4.2819499   -0.1896997
C     2.1942091    2.5487446    0.2579577
H     3.1168527    3.0912848    0.4334727
C     2.2216473    1.1336562    0.2934990
C     1.0486931    0.3945528    0.0302412
C     3.4483363    0.4614633    0.5573939
H     4.3095794    1.0606054    0.8334846
C     3.5427346   -0.8855926    0.4749463
H     4.4731467   -1.3939704    0.7038822
C     2.4490052   -1.6474447   -0.0196319
C     1.2150704   -1.0057258   -0.3013573
C     0.2531113   -1.7434440   -1.0216591
H    -0.6541356   -1.2535051   -1.3462847
C     0.4494193   -3.0628597   -1.3413779
H    -0.3083162   -3.5944309   -1.9054060
C     1.6251726   -3.7207967   -0.9552541
H     1.7670048   -4.7687404   -1.1927019
C     2.6109872   -3.0144177   -0.3183050
H     3.5525612   -3.4902813   -0.0646367
Bq         0.3887823425     4.2304988260     0.2516401571
Bq         0.3453544834     4.2452392813     0.5481140009
Bq         0.4032582956     4.2255853410     0.1528155425
Bq         0.3308785304     4.2501527664     0.6469386155
Bq         0.4177342486     4.2206718559     0.0539909280
Bq         0.3164025773     4.2550662515     0.7457632300
Bq         0.4322102017     4.2157583708    -0.0448336866
Bq         0.3019266243     4.2599797365     0.8445878446
Bq         0.4466861547     4.2108448857    -0.1436583012
Bq         0.3743063895     4.2354123111     0.3504647717
Bq         0.3605425704     4.3402050116     0.4444277815
Bq         0.3894944765     4.3303780414     0.2467785524
Bq         0.3460666173     4.3451184967     0.5432523961
Bq         0.4039704295     4.3254645563     0.1479539378
Bq         0.3315906643     4.3500319818     0.6420770107
Bq         0.4184463826     4.3205510713     0.0491293232
Bq         0.3171147112     4.3549454668     0.7409016253
Bq         0.4329223356     4.3156375862    -0.0496952914
Bq         0.3026387582     4.3598589519     0.8397262399
Bq         0.4473982886     4.3107241011    -0.1485199060
Bq         0.3750185234     4.3352915265     0.3456031669
Bq         0.4238799972    -0.6537557573     0.7020014788
Bq         0.4528319033    -0.6635827274     0.5043522496
Bq         0.4094040441    -0.6488422722     0.8008260934
Bq         0.4673078563    -0.6684962125     0.4055276350
Bq         0.3949280911    -0.6439287871     0.8996507079
Bq         0.4817838093    -0.6734096976     0.3067030204
Bq         0.3804521380    -0.6390153020     0.9984753225
Bq         0.4962597624    -0.6783231827     0.2078784058
Bq         0.3659761850    -0.6341018169     1.0972999371
Bq         0.5107357154    -0.6832366678     0.1090537913
Bq         0.4383559502    -0.6586692423     0.6031768642
Bq         0.4245921311    -0.5538765419     0.6971398740
Bq         0.4535440372    -0.5637035121     0.4994906448
Bq         0.4101161781    -0.5489630568     0.7959644886
Bq         0.4680199902    -0.5686169971     0.4006660302
Bq         0.3956402250    -0.5440495717     0.8947891032
Bq         0.4824959433    -0.5735304822     0.3018414157
Bq         0.3811642720    -0.5391360866     0.9936137178
Bq         0.4969718963    -0.5784439673     0.2030168011
Bq         0.3666883189    -0.5342226016     1.0924383323
Bq         0.5114478494    -0.5833574524     0.1041921865
Bq         0.4390680842    -0.5587900270     0.5983152594
Bq         0.4253042651    -0.4539973265     0.6922782692
Bq         0.4542561711    -0.4638242967     0.4946290401
Bq         0.4108283120    -0.4490838414     0.7911028838
Bq         0.4687321242    -0.4687377818     0.3958044255
Bq         0.3963523590    -0.4441703563     0.8899274984
Bq         0.4832080772    -0.4736512668     0.2969798109
Bq         0.3818764059    -0.4392568713     0.9887521130
Bq         0.4976840303    -0.4785647519     0.1981551963
Bq         0.3674004529    -0.4343433862     1.0875767276
Bq         0.5121599833    -0.4834782370     0.0993305817
Bq         0.4397802181    -0.4589108116     0.5934536546
Bq         0.4260163990    -0.3541181111     0.6874166645
Bq         0.4549683051    -0.3639450813     0.4897674353
Bq         0.4115404459    -0.3492046261     0.7862412791
Bq         0.4694442581    -0.3688585664     0.3909428207
Bq         0.3970644929    -0.3442911410     0.8850658936
Bq         0.4839202112    -0.3737720515     0.2921182061
Bq         0.3825885399    -0.3393776559     0.9838905082
Bq         0.4983961642    -0.3786855365     0.1932935915
Bq         0.3681125868    -0.3344641708     1.0827151228
Bq         0.5128721173    -0.3835990216     0.0944689770
Bq         0.4404923520    -0.3590315962     0.5885920499
Bq         0.4267285329    -0.2542388958     0.6825550597
Bq         0.4556804390    -0.2640658659     0.4849058305
Bq         0.4122525799    -0.2493254107     0.7813796743
Bq         0.4701563921    -0.2689793510     0.3860812159
Bq         0.3977766268    -0.2444119256     0.8802042889
Bq         0.4846323451    -0.2738928361     0.2872566014
Bq         0.3833006738    -0.2394984405     0.9790289035
Bq         0.4991082982    -0.2788063212     0.1884319868
Bq         0.3688247208    -0.2345849554     1.0778535180
Bq         0.5135842512    -0.2837198063     0.0896073722
Bq         0.4412044860    -0.2591523808     0.5837304451
Bq         0.4274406669    -0.1543596804     0.6776934549
Bq         0.4563925730    -0.1641866505     0.4800442258
Bq         0.4129647138    -0.1494461953     0.7765180695
Bq         0.4708685260    -0.1691001356     0.3812196112
Bq         0.3984887608    -0.1445327102     0.8753426841
Bq         0.4853444791    -0.1740136207     0.2823949966
Bq         0.3840128077    -0.1396192251     0.9741672987
Bq         0.4998204321    -0.1789271058     0.1835703820
Bq         0.3695368547    -0.1347057400     1.0729919133
Bq         0.5142963851    -0.1838405909     0.0847457674
Bq         0.4419166199    -0.1592731655     0.5788688403
Bq         0.4281528008    -0.0544804650     0.6728318502
Bq         0.4571047069    -0.0643074352     0.4751826210
Bq         0.4136768478    -0.0495669799     0.7716564648
Bq         0.4715806600    -0.0692209203     0.3763580064
Bq         0.3992008947    -0.0446534948     0.8704810793
Bq         0.4860566130    -0.0741344053     0.2775333918
Bq         0.3847249417    -0.0397400098     0.9693056939
Bq         0.5005325660    -0.0790478904     0.1787087772
Bq         0.3702489886    -0.0348265247     1.0681303085
Bq         0.5150085191    -0.0839613755     0.0798841627
Bq         0.4426287539    -0.0593939501     0.5740072356
Bq         0.4288649348     0.0453987504     0.6679702454
Bq         0.4578168408     0.0355717802     0.4703210162
Bq         0.4143889817     0.0503122355     0.7667948600
Bq         0.4722927939     0.0306582951     0.3714964016
Bq         0.3999130287     0.0552257205     0.8656194746
Bq         0.4867687469     0.0257448100     0.2726717871
Bq         0.3854370756     0.0601392056     0.9644440892
Bq         0.5012447000     0.0208313250     0.1738471725
Bq         0.3709611226     0.0650526907     1.0632687037
Bq         0.5157206530     0.0159178399     0.0750225579
Bq         0.4433408878     0.0404852653     0.5691456308
Bq         0.4295770687     0.1452779658     0.6631086406
Bq         0.4585289748     0.1354509956     0.4654594115
Bq         0.4151011157     0.1501914508     0.7619332552
Bq         0.4730049278     0.1305375105     0.3666347969
Bq         0.4006251626     0.1551049359     0.8607578698
Bq         0.4874808809     0.1256240254     0.2678101823
Bq         0.3861492096     0.1600184210     0.9595824844
Bq         0.5019568339     0.1207105403     0.1689855677
Bq         0.3716732565     0.1649319061     1.0584070990
Bq         0.5164327870     0.1157970553     0.0701609531
Bq         0.4440530217     0.1403644807     0.5642840261
Bq         0.4302892026     0.2451571811     0.6582470359
Bq         0.4592411087     0.2353302110     0.4605978067
Bq         0.4158132496     0.2500706662     0.7570716505
Bq         0.4737170618     0.2304167259     0.3617731921
Bq         0.4013372966     0.2549841513     0.8558962650
Bq         0.4881930148     0.2255032408     0.2629485775
Bq         0.3868613435     0.2598976364     0.9547208796
Bq         0.5026689679     0.2205897557     0.1641239629
Bq         0.3723853905     0.2648111215     1.0535454942
Bq         0.5171449209     0.2156762706     0.0652993484
Bq         0.4447651557     0.2402436960     0.5594224213
Bq         0.4310013366     0.3450363965     0.6533854311
Bq         0.4599532427     0.3352094263     0.4557362019
Bq         0.4165253835     0.3499498816     0.7522100457
Bq         0.4744291957     0.3302959413     0.3569115873
Bq         0.4020494305     0.3548633667     0.8510346603
Bq         0.4889051488     0.3253824562     0.2580869728
Bq         0.3875734775     0.3597768518     0.9498592749
Bq         0.5033811018     0.3204689711     0.1592623582
Bq         0.3730975244     0.3646903368     1.0486838894
Bq         0.5178570549     0.3155554860     0.0604377436
Bq         0.4454772896     0.3401229114     0.5545608165
Bq         0.4317134705     0.4449156119     0.6485238263
Bq         0.4606653766     0.4350886417     0.4508745972
Bq         0.4172375175     0.4498290970     0.7473484409
Bq         0.4751413297     0.4301751566     0.3520499826
Bq         0.4027615644     0.4547425820     0.8461730555
Bq         0.4896172827     0.4252616716     0.2532253680
Bq         0.3882856114     0.4596560671     0.9449976701
Bq         0.5040932357     0.4203481865     0.1544007534
Bq         0.3738096583     0.4645695522     1.0438222847
Bq         0.5185691888     0.4154347014     0.0555761388
Bq         0.4461894236     0.4400021268     0.5496992118
Bq         0.4324256045     0.5447948273     0.6436622216
Bq         0.4613775106     0.5349678571     0.4460129924
Bq         0.4179496514     0.5497083123     0.7424868362
Bq         0.4758534636     0.5300543720     0.3471883778
Bq         0.4034736984     0.5546217974     0.8413114507
Bq         0.4903294166     0.5251408869     0.2483637632
Bq         0.3889977453     0.5595352825     0.9401360653
Bq         0.5048053697     0.5202274018     0.1495391486
Bq         0.3745217923     0.5644487676     1.0389606799
Bq         0.5192813227     0.5153139168     0.0507145341
Bq         0.4469015575     0.5398813422     0.5448376070
Bq         0.4331377384     0.6446740426     0.6388006168
Bq         0.4620896445     0.6348470725     0.4411513876
Bq         0.4186617854     0.6495875277     0.7376252314
Bq         0.4765655975     0.6299335874     0.3423267730
Bq         0.4041858323     0.6545010128     0.8364498460
Bq         0.4910415506     0.6250201023     0.2435021585
Bq         0.3897098793     0.6594144979     0.9352744606
Bq         0.5055175036     0.6201066172     0.1446775439
Bq         0.3752339262     0.6643279830     1.0340990751
Bq         0.5199934567     0.6151931321     0.0458529293
Bq         0.4476136915     0.6397605576     0.5399760022
Bq         0.4338498724     0.7445532580     0.6339390120
Bq         0.4628017784     0.7347262878     0.4362897829
Bq         0.4193739193     0.7494667431     0.7327636266
Bq         0.4772777315     0.7298128028     0.3374651683
Bq         0.4048979663     0.7543802282     0.8315882412
Bq         0.4917536845     0.7248993177     0.2386405537
Bq         0.3904220132     0.7592937133     0.9304128558
Bq         0.5062296376     0.7199858326     0.1398159391
Bq         0.3759460602     0.7642071983     1.0292374704
Bq         0.5207055906     0.7150723475     0.0409913245
Bq         0.4483258254     0.7396397729     0.5351143975
Bq         0.4345620063     0.8444324734     0.6290774073
Bq         0.4635139124     0.8346055032     0.4314281781
Bq         0.4200860532     0.8493459585     0.7279020219
Bq         0.4779898654     0.8296920181     0.3326035635
Bq         0.4056101002     0.8542594436     0.8267266364
Bq         0.4924658185     0.8247785331     0.2337789489
Bq         0.3911341472     0.8591729286     0.9255512510
Bq         0.5069417715     0.8198650480     0.1349543343
Bq         0.3766581941     0.8640864137     1.0243758656
Bq         0.5214177246     0.8149515629     0.0361297198
Bq         0.4490379593     0.8395189883     0.5302527927
Bq         0.4352741402     0.9443116888     0.6242158025
Bq         0.4642260463     0.9344847186     0.4265665733
Bq         0.4207981872     0.9492251739     0.7230404171

1
2
3
4
5
6
7
8
9
10
11
12
13
14
15
16
17
18
19
20
21
22
23
24
25
26
27
28
29
30
31
32
33
34
35
36
37
38
39
40
41
42
43
44
45
46
47
48
49
50
51
52
53
54
55
56
57
58
59
60
61
62
63
64
65
66
67
68
69
70
71
72
73
74
75
76
77
78
79
80
81
82
83
84
85
86
87
88
89
90
91
92
93
94
95
96
97
98
99
100
101
102
103
104
105
106
107
108
109
110
111
112
113
114
115
116
117
118
119
120
121
122
123
124
125
126
127
128
129
130
131
132
133
134
135
136
137
138
139
140
141
142
143
144
145
146
147
148
149
150
151
152
153
154
155
156
157
158
159
160
161
162
163
164
165
166
167
168
169
170
171
172
173
174
175
176
177
178
179
180
181
182
183
184
185
186
187
188
189
190
191
192
193
194
195
196
197
198
199
200
201
202
203
204
205
206
207
208
209
210
211
212
213
214
215
216
217
218
219
220
221
222
223
224
225
226
227
228
229
230
231
232
233
234
235
236

