%nproc=8
%mem=1000MB
# rb3lyp/6-311+g** NMR geom=connectivity

Title

0 1
C    -4.0500558   -0.5771862    0.8136712
H    -5.0263804   -1.0082727    1.0024760
C    -3.9381552    0.6617804    0.2400876
H    -4.8252424    1.2338890   -0.0111295
C    -2.6768410    1.2433246    0.0057578
C    -1.4974121    0.5051527    0.2848253
C    -1.6508332   -0.7338728    0.9404026
H    -0.7713646   -1.2730967    1.2633753
C    -2.8898548   -1.2624035    1.1994307
H    -2.9683706   -2.2124563    1.7152676
C    -2.5773185    2.5963696   -0.4192930
H    -3.4870728    3.1412239   -0.6474055
C    -1.3741895    3.2147896   -0.4364030
H    -1.2997315    4.2742019   -0.6578144
C    -0.1719488    2.4994090   -0.1734588
C    -0.2043917    1.1018437    0.0192689
C     1.0513491    3.2042560   -0.0676222
H     1.0427344    4.2819499   -0.1896997
C     2.1942091    2.5487446    0.2579577
H     3.1168527    3.0912848    0.4334727
C     2.2216473    1.1336562    0.2934990
C     1.0486931    0.3945528    0.0302412
C     3.4483363    0.4614633    0.5573939
H     4.3095794    1.0606054    0.8334846
C     3.5427346   -0.8855926    0.4749463
H     4.4731467   -1.3939704    0.7038822
C     2.4490052   -1.6474447   -0.0196319
C     1.2150704   -1.0057258   -0.3013573
C     0.2531113   -1.7434440   -1.0216591
H    -0.6541356   -1.2535051   -1.3462847
C     0.4494193   -3.0628597   -1.3413779
H    -0.3083162   -3.5944309   -1.9054060
C     1.6251726   -3.7207967   -0.9552541
H     1.7670048   -4.7687404   -1.1927019
C     2.6109872   -3.0144177   -0.3183050
H     3.5525612   -3.4902813   -0.0646367
Bq        -1.2830277428     0.6466416657     0.3722664555
Bq        -1.2862137030     1.0379861187     1.1827227274
Bq        -1.2826737473     0.6031589487     0.2822157586
Bq        -1.2844437251     0.8205725337     0.7324692430
Bq        -1.2846267884     0.9541066434     0.7790375588
Bq        -1.2839187973     0.8671412094     0.5989361651
Bq        -1.2849807840     0.9975893604     0.8690882557
Bq        -1.2835648017     0.8236584924     0.5088854682
Bq        -1.2853347796     1.0410720774     0.9591389526
Bq        -1.2832108061     0.7801757754     0.4188347713
Bq        -1.2856887752     1.0845547944     1.0491896495
Bq        -1.2828568106     0.7366930584     0.3287840744
Bq        -1.2860427707     1.1280375114     1.1392403464
Bq        -1.2825028150     0.6932103414     0.2387333775
Bq        -1.2842727929     0.9106239264     0.6889868620
Bq        -1.2844558562     1.0441580361     0.7355551778
Bq        -1.2837478650     0.9571926021     0.5554537840
Bq        -1.2848098517     1.0876407531     0.8256058747
Bq        -1.2833938694     0.9137098850     0.4654030872
Bq        -1.2851638473     1.1311234701     0.9156565716
Bq        -1.2830398739     0.8702271680     0.3753523903
Bq        -1.2855178429     1.1746061871     1.0057072685
Bq        -1.2826858783     0.8267444510     0.2853016934
Bq        -1.2858718385     1.2180889041     1.0957579653
Bq        -1.2823318827     0.7832617340     0.1952509965
Bq        -1.2841018606     1.0006753191     0.6455044809
Bq        -1.2842849239     1.1342094287     0.6920727968
Bq        -1.2835769327     1.0472439947     0.5119714030
Bq        -1.2846389195     1.1776921457     0.7821234937
Bq        -1.2832229372     1.0037612777     0.4219207061
Bq        -1.2849929150     1.2211748627     0.8721741905
Bq        -1.2828689416     0.9602785607     0.3318700092
Bq        -1.2853469106     1.2646575797     0.9622248874
Bq        -1.2825149460     0.9167958437     0.2418193124
Bq        -1.2857009062     1.3081402968     1.0522755843
Bq        -1.2821609504     0.8733131267     0.1517686155
Bq        -1.2839309283     1.0907267117     0.6020220999
Bq        -1.2841139916     1.2242608214     0.6485904157
Bq        -1.2834060005     1.1372953874     0.4684890220
Bq        -1.2844679872     1.2677435384     0.7386411126
Bq        -1.2830520049     1.0938126704     0.3784383251
Bq        -1.2848219828     1.3112262554     0.8286918095
Bq        -1.2826980093     1.0503299534     0.2883876282
Bq        -1.2851759783     1.3547089724     0.9187425064
Bq        -1.2823440137     1.0068472364     0.1983369313
Bq        -1.2855299739     1.3981916894     1.0087932033
Bq        -1.2819900182     0.9633645194     0.1082862344
Bq        -1.2837599960     1.1807781044     0.5585397189
Bq        -1.2839430593     1.3143122141     0.6051080347
Bq        -1.2832350682     1.2273467801     0.4250066409
Bq        -1.2842970549     1.3577949311     0.6951587316
Bq        -1.2828810726     1.1838640631     0.3349559441
Bq        -1.2846510505     1.4012776481     0.7852094285
Bq        -1.2825270770     1.1403813461     0.2449052472
Bq        -1.2850050461     1.4447603651     0.8752601254
Bq        -1.2821730815     1.0968986291     0.1548545503
Bq        -1.2853590416     1.4882430821     0.9653108222
Bq        -1.2818190859     1.0534159120     0.0648038534
Bq        -1.2835890638     1.2708294971     0.5150573378
Bq        -1.2837721271     1.4043636067     0.5616256537
Bq        -1.2830641359     1.3173981727     0.3815242599
Bq        -1.2841261226     1.4478463237     0.6516763506
Bq        -1.2827101403     1.2739154557     0.2914735630
Bq        -1.2844801182     1.4913290408     0.7417270474
Bq        -1.2823561448     1.2304327387     0.2014228661
Bq        -1.2848341138     1.5348117578     0.8317777443
Bq        -1.2820021492     1.1869500217     0.1113721693
Bq        -1.2851881094     1.5782944748     0.9218284412
Bq        -1.2816481536     1.1434673047     0.0213214724
Bq        -1.2834181315     1.3608808897     0.4715749568
Bq        -1.2836011948     1.4944149994     0.5181432726
Bq        -1.2828932036     1.4074495654     0.3380418789
Bq        -1.2839551904     1.5378977164     0.6081939695
Bq        -1.2825392081     1.3639668484     0.2479911820
Bq        -1.2843091859     1.5813804334     0.6982446664
Bq        -1.2821852125     1.3204841314     0.1579404851
Bq        -1.2846631815     1.6248631504     0.7882953633
Bq        -1.2818312169     1.2770014144     0.0678897882
Bq        -1.2850171771     1.6683458674     0.8783460602
Bq        -1.2814772213     1.2335186974    -0.0221609087
Bq        -1.2832471992     1.4509322824     0.4280925758
Bq        -1.2834302625     1.5844663921     0.4746608916
Bq        -1.2827222714     1.4975009581     0.2945594978
Bq        -1.2837842581     1.6279491091     0.5647115885
Bq        -1.2823682758     1.4540182411     0.2045088010
Bq        -1.2841382537     1.6714318261     0.6547622854
Bq        -1.2820142802     1.4105355241     0.1144581041
Bq        -1.2844922492     1.7149145431     0.7448129823
Bq        -1.2816602846     1.3670528071     0.0244074072
Bq        -1.2848462448     1.7583972601     0.8348636791
Bq        -1.2813062891     1.3235700901    -0.0656432897
Bq        -1.2830762669     1.5409836751     0.3846101947
Bq        -1.2832593302     1.6745177848     0.4311785106
Bq        -1.2825513391     1.5875523507     0.2510771168
Bq        -1.2836133258     1.7180005018     0.5212292075
Bq        -1.2821973435     1.5440696337     0.1610264199
Bq        -1.2839673214     1.7614832188     0.6112799043
Bq        -1.2818433479     1.5005869167     0.0709757230
Bq        -1.2843213170     1.8049659358     0.7013306012
Bq        -1.2814893524     1.4571041997    -0.0190749738
Bq        -1.2846753125     1.8484486528     0.7913812981
Bq        -1.2811353568     1.4136214827    -0.1091256707
Bq        -1.2829053347     1.6310350678     0.3411278137
Bq        -1.2830883980     1.7645691774     0.3876961295
Bq        -1.2823804068     1.6776037434     0.2075947358
Bq        -1.2834423935     1.8080518944     0.4777468264
Bq        -1.2820264112     1.6341210264     0.1175440389
Bq        -1.2837963891     1.8515346114     0.5677975233
Bq        -1.2816724157     1.5906383094     0.0274933420
Bq        -1.2841503847     1.8950173284     0.6578482202
Bq        -1.2813184201     1.5471555924    -0.0625573549
Bq        -1.2845043803     1.9385000454     0.7478989171
Bq        -1.2809644245     1.5036728754    -0.1526080518
Bq        -1.2827344024     1.7210864604     0.2976454327
Bq        -1.2829174657     1.8546205701     0.3442137485
Bq        -1.2822094745     1.7676551361     0.1641123547
Bq        -1.2832714613     1.8981032871     0.4342644454
Bq        -1.2818554790     1.7241724191     0.0740616579
Bq        -1.2836254568     1.9415860041     0.5243151423
Bq        -1.2815014834     1.6806897021    -0.0159890390
Bq        -1.2839794524     1.9850687211     0.6143658392
Bq        -1.2811474878     1.6372069851    -0.1060397359
Bq        -1.2843334480     2.0285514381     0.7044165360
Bq        -1.2807934922     1.5937242681    -0.1960904328
Bq        -1.2825634701     1.8111378531     0.2541630516
Bq        -1.2827465334     1.9446719628     0.3007313675
Bq        -1.2820385423     1.8577065288     0.1206299737
Bq        -1.2831005290     1.9881546798     0.3907820644
Bq        -1.2816845467     1.8142238118     0.0305792768
Bq        -1.2834545246     2.0316373968     0.4808327612
Bq        -1.2813305511     1.7707410947    -0.0594714201
Bq        -1.2838085201     2.0751201138     0.5708834581
Bq        -1.2809765555     1.7272583777    -0.1495221169
Bq        -1.2841625157     2.1186028308     0.6609341550
Bq        -1.2806225600     1.6837756607    -0.2395728138
Bq        -1.2823925378     1.9011892458     0.2106806706
Bq        -1.2825756011     2.0347233554     0.2572489864
Bq        -1.2818676100     1.9477579214     0.0771475927
Bq        -1.2829295967     2.0782060724     0.3472996833
Bq        -1.2815136144     1.9042752044    -0.0129031042
Bq        -1.2832835923     2.1216887894     0.4373503802
Bq        -1.2811596188     1.8607924874    -0.1029538011
Bq        -1.2836375879     2.1651715065     0.5274010771
Bq        -1.2808056233     1.8173097704    -0.1930044980
Bq        -1.2839915834     2.2086542235     0.6174517740
Bq        -1.2804516277     1.7738270534    -0.2830551948
Bq        -1.2822216056     1.9912406384     0.1671982896
Bq        -1.2824046689     2.1247747481     0.2137666054
Bq        -1.2816966777     2.0378093141     0.0336652116
Bq        -1.2827586644     2.1682574651     0.3038173023
Bq        -1.2813426821     1.9943265971    -0.0563854852
Bq        -1.2831126600     2.2117401821     0.3938679992
Bq        -1.2809886866     1.9508438801    -0.1464361821
Bq        -1.2834666556     2.2552228991     0.4839186961
Bq        -1.2806346910     1.9073611631    -0.2364868790
Bq        -1.2838206512     2.2987056161     0.5739693929
Bq        -1.2802806954     1.8638784461    -0.3265375759
Bq        -1.2820506733     2.0812920311     0.1237159085
Bq        -1.2822337366     2.2148261408     0.1702842244
Bq        -1.2815257454     2.1278607068    -0.0098171694
Bq        -1.2825877322     2.2583088578     0.2603349213
Bq        -1.2811717499     2.0843779898    -0.0998678663
Bq        -1.2829417277     2.3017915748     0.3503856181
Bq        -1.2808177543     2.0408952728    -0.1899185631
Bq        -1.2832957233     2.3452742918     0.4404363150
Bq        -1.2804637587     1.9974125558    -0.2799692600
Bq        -1.2836497189     2.3887570088     0.5304870119
Bq        -1.2801097631     1.9539298388    -0.3700199569
Bq        -1.2818797410     2.1713434238     0.0802335275
Bq        -1.2820628043     2.3048775334     0.1268018433
Bq        -1.2813548132     2.2179120994    -0.0532995504
Bq        -1.2824167999     2.3483602505     0.2168525402
Bq        -1.2810008176     2.1744293824    -0.1433502473
Bq        -1.2827707955     2.3918429675     0.3069032371
Bq        -1.2806468220     2.1309466654    -0.2334009442
Bq        -1.2831247910     2.4353256845     0.3969539340
Bq        -1.2802928264     2.0874639484    -0.3234516411
Bq        -1.2834787866     2.4788084015     0.4870046309
Bq        -1.2799388309     2.0439812314    -0.4135023379
Bq        -1.2817088087     2.2613948164     0.0367511465
Bq        -1.2818918720     2.3949289261     0.0833194623
Bq        -1.2811838809     2.3079634921    -0.0967819314
Bq        -1.2822458676     2.4384116431     0.1733701592
Bq        -1.2808298853     2.2644807751    -0.1868326283
Bq        -1.2825998632     2.4818943601     0.2634208561
Bq        -1.2804758897     2.2209980581    -0.2768833252
Bq        -1.2829538588     2.5253770771     0.3534715530
Bq        -1.2801218942     2.1775153411    -0.3669340221
Bq        -1.2833078543     2.5688597941     0.4435222498
Bq        -1.2797678986     2.1340326241    -0.4569847190
Bq        -1.2815378765     2.3514462091    -0.0067312346
Bq        -1.2817209398     2.4849803188     0.0398370813
Bq        -1.2810129486     2.3980148848    -0.1402643125
Bq        -1.2820749353     2.5284630358     0.1298877782
Bq        -1.2806589530     2.3545321678    -0.2303150094
Bq        -1.2824289309     2.5719457528     0.2199384750
Bq        -1.2803049575     2.3110494508    -0.3203657062
Bq        -1.2827829265     2.6154284698     0.3099891719
Bq        -1.2799509619     2.2675667338    -0.4104164031
Bq        -1.2831369221     2.6589111868     0.4000398688

1
2
3
4
5
6
7
8
9
10
11
12
13
14
15
16
17
18
19
20
21
22
23
24
25
26
27
28
29
30
31
32
33
34
35
36
37
38
39
40
41
42
43
44
45
46
47
48
49
50
51
52
53
54
55
56
57
58
59
60
61
62
63
64
65
66
67
68
69
70
71
72
73
74
75
76
77
78
79
80
81
82
83
84
85
86
87
88
89
90
91
92
93
94
95
96
97
98
99
100
101
102
103
104
105
106
107
108
109
110
111
112
113
114
115
116
117
118
119
120
121
122
123
124
125
126
127
128
129
130
131
132
133
134
135
136
137
138
139
140
141
142
143
144
145
146
147
148
149
150
151
152
153
154
155
156
157
158
159
160
161
162
163
164
165
166
167
168
169
170
171
172
173
174
175
176
177
178
179
180
181
182
183
184
185
186
187
188
189
190
191
192
193
194
195
196
197
198
199
200
201
202
203
204
205
206
207
208
209
210
211
212
213
214
215
216
217
218
219
220
221
222
223
224
225
226
227
228
229
230
231
232
233
234
235
236

