%nproc=8
%mem=1000MB
# rb3lyp/6-311+g** NMR geom=connectivity

Title

0 1
C    -4.0500558   -0.5771862    0.8136712
H    -5.0263804   -1.0082727    1.0024760
C    -3.9381552    0.6617804    0.2400876
H    -4.8252424    1.2338890   -0.0111295
C    -2.6768410    1.2433246    0.0057578
C    -1.4974121    0.5051527    0.2848253
C    -1.6508332   -0.7338728    0.9404026
H    -0.7713646   -1.2730967    1.2633753
C    -2.8898548   -1.2624035    1.1994307
H    -2.9683706   -2.2124563    1.7152676
C    -2.5773185    2.5963696   -0.4192930
H    -3.4870728    3.1412239   -0.6474055
C    -1.3741895    3.2147896   -0.4364030
H    -1.2997315    4.2742019   -0.6578144
C    -0.1719488    2.4994090   -0.1734588
C    -0.2043917    1.1018437    0.0192689
C     1.0513491    3.2042560   -0.0676222
H     1.0427344    4.2819499   -0.1896997
C     2.1942091    2.5487446    0.2579577
H     3.1168527    3.0912848    0.4334727
C     2.2216473    1.1336562    0.2934990
C     1.0486931    0.3945528    0.0302412
C     3.4483363    0.4614633    0.5573939
H     4.3095794    1.0606054    0.8334846
C     3.5427346   -0.8855926    0.4749463
H     4.4731467   -1.3939704    0.7038822
C     2.4490052   -1.6474447   -0.0196319
C     1.2150704   -1.0057258   -0.3013573
C     0.2531113   -1.7434440   -1.0216591
H    -0.6541356   -1.2535051   -1.3462847
C     0.4494193   -3.0628597   -1.3413779
H    -0.3083162   -3.5944309   -1.9054060
C     1.6251726   -3.7207967   -0.9552541
H     1.7670048   -4.7687404   -1.1927019
C     2.6109872   -3.0144177   -0.3183050
H     3.5525612   -3.4902813   -0.0646367
Bq         0.6108529616    -0.1494461953     0.8055049873
Bq         0.6687567738    -0.1691001356     0.4102065290
Bq         0.5963770085    -0.1445327102     0.9043296019
Bq         0.6832327268    -0.1740136207     0.3113819144
Bq         0.5819010555    -0.1396192251     1.0031542165
Bq         0.6977086798    -0.1789271058     0.2125572998
Bq         0.5674251024    -0.1347057400     1.1019788311
Bq         0.7121846329    -0.1838405909     0.1137326853
Bq         0.6398048677    -0.1592731655     0.6078557582
Bq         0.6260410486    -0.0544804650     0.7018187680
Bq         0.6549929546    -0.0643074352     0.5041695388
Bq         0.6115650955    -0.0495669799     0.8006433826
Bq         0.6694689077    -0.0692209203     0.4053449242
Bq         0.5970891425    -0.0446534948     0.8994679972
Bq         0.6839448607    -0.0741344053     0.3065203097
Bq         0.5826131894    -0.0397400098     0.9982926117
Bq         0.6984208138    -0.0790478904     0.2076956951
Bq         0.5681372364    -0.0348265247     1.0971172263
Bq         0.7128967668    -0.0839613755     0.1088710805
Bq         0.6405170016    -0.0593939501     0.6029941534
Bq         0.6267531825     0.0453987504     0.6969571632
Bq         0.6557050886     0.0355717802     0.4993079341
Bq         0.6122772295     0.0503122355     0.7957817778
Bq         0.6701810416     0.0306582951     0.4004833195
Bq         0.5978012764     0.0552257205     0.8946063924
Bq         0.6846569947     0.0257448100     0.3016587049
Bq         0.5833253234     0.0601392056     0.9934310070
Bq         0.6991329477     0.0208313250     0.2028340903
Bq         0.5688493703     0.0650526907     1.0922556216
Bq         0.7136089008     0.0159178399     0.1040094757
Bq         0.6412291355     0.0404852653     0.5981325486
Bq         0.6274653164     0.1452779658     0.6920955585
Bq         0.6564172225     0.1354509956     0.4944463293
Bq         0.6129893634     0.1501914508     0.7909201730
Bq         0.6708931756     0.1305375105     0.3956217147
Bq         0.5985134104     0.1551049359     0.8897447876
Bq         0.6853691286     0.1256240254     0.2967971001
Bq         0.5840374573     0.1600184210     0.9885694022
Bq         0.6998450817     0.1207105403     0.1979724855
Bq         0.5695615043     0.1649319061     1.0873940168
Bq         0.7143210347     0.1157970553     0.0991478710
Bq         0.6419412695     0.1403644807     0.5932709439
Bq         0.6281774504     0.2451571811     0.6872339537
Bq         0.6571293565     0.2353302110     0.4895847245
Bq         0.6137014973     0.2500706662     0.7860585683
Bq         0.6716053095     0.2304167259     0.3907601099
Bq         0.5992255443     0.2549841513     0.8848831829
Bq         0.6860812626     0.2255032408     0.2919354954
Bq         0.5847495913     0.2598976364     0.9837077975
Bq         0.7005572156     0.2205897557     0.1931108808
Bq         0.5702736382     0.2648111215     1.0825324120
Bq         0.7150331687     0.2156762706     0.0942862662
Bq         0.6426534034     0.2402436960     0.5884093391
Bq         0.6288895843     0.3450363965     0.6823723489
Bq         0.6578414904     0.3352094263     0.4847231198
Bq         0.6144136313     0.3499498816     0.7811969635
Bq         0.6723174435     0.3302959413     0.3858985052
Bq         0.5999376782     0.3548633667     0.8800215781
Bq         0.6867933965     0.3253824562     0.2870738906
Bq         0.5854617252     0.3597768518     0.9788461927
Bq         0.7012693495     0.3204689711     0.1882492760
Bq         0.5709857722     0.3646903368     1.0776708073
Bq         0.7157453026     0.3155554860     0.0894246614
Bq         0.6433655374     0.3401229114     0.5835477343
Bq         0.6296017183     0.4449156119     0.6775107442
Bq         0.6585536244     0.4350886417     0.4798615150
Bq         0.6151257652     0.4498290970     0.7763353587
Bq         0.6730295774     0.4301751566     0.3810369004
Bq         0.6006498122     0.4547425820     0.8751599733
Bq         0.6875055304     0.4252616716     0.2822122858
Bq         0.5861738591     0.4596560671     0.9739845879
Bq         0.7019814835     0.4203481865     0.1833876712
Bq         0.5716979061     0.4645695522     1.0728092025
Bq         0.7164574365     0.4154347014     0.0845630567
Bq         0.6440776713     0.4400021268     0.5786861296
Bq         0.6303138522     0.5447948273     0.6726491394
Bq         0.6592657583     0.5349678571     0.4749999102
Bq         0.6158378992     0.5497083123     0.7714737540
Bq         0.6737417113     0.5300543720     0.3761752956
Bq         0.6013619461     0.5546217974     0.8702983686
Bq         0.6882176644     0.5251408869     0.2773506811
Bq         0.5868859931     0.5595352825     0.9691229832
Bq         0.7026936174     0.5202274018     0.1785260665
Bq         0.5724100400     0.5644487676     1.0679475977
Bq         0.7171695705     0.5153139168     0.0797014519
Bq         0.6447898053     0.5398813422     0.5738245248
Bq         0.6310259862     0.6446740426     0.6677875346
Bq         0.6599778922     0.6348470725     0.4701383055
Bq         0.6165500331     0.6495875277     0.7666121492
Bq         0.6744538453     0.6299335874     0.3713136909
Bq         0.6020740801     0.6545010128     0.8654367638
Bq         0.6889297983     0.6250201023     0.2724890763
Bq         0.5875981270     0.6594144979     0.9642613784
Bq         0.7034057514     0.6201066172     0.1736644617
Bq         0.5731221740     0.6643279830     1.0630859930
Bq         0.7178817044     0.6151931321     0.0748398471
Bq         0.6455019392     0.6397605576     0.5689629200
Bq         0.6317381201     0.7445532580     0.6629259299
Bq         0.6606900262     0.7347262878     0.4652767007
Bq         0.6172621671     0.7494667431     0.7617505444
Bq         0.6751659792     0.7298128028     0.3664520861
Bq         0.6027862140     0.7543802282     0.8605751590
Bq         0.6896419323     0.7248993177     0.2676274715
Bq         0.5883102610     0.7592937133     0.9593997736
Bq         0.7041178853     0.7199858326     0.1688028569
Bq         0.5738343079     0.7642071983     1.0582243882
Bq         0.7185938384     0.7150723475     0.0699782424
Bq         0.6462140731     0.7396397729     0.5641013153
Bq         0.6324502540     0.8444324734     0.6580643251
Bq         0.6614021601     0.8346055032     0.4604150959
Bq         0.6179743010     0.8493459585     0.7568889397
Bq         0.6758781132     0.8296920181     0.3615904813
Bq         0.6034983479     0.8542594436     0.8557135543
Bq         0.6903540662     0.8247785331     0.2627658668
Bq         0.5890223949     0.8591729286     0.9545381689
Bq         0.7048300193     0.8198650480     0.1639412522
Bq         0.5745464419     0.8640864137     1.0533627834
Bq         0.7193059723     0.8149515629     0.0651166376
Bq         0.6469262071     0.8395189883     0.5592397105
Bq         0.6331623880     0.9443116888     0.6532027203
Bq         0.6621142941     0.9344847186     0.4555534912
Bq         0.6186864349     0.9492251739     0.7520273349
Bq         0.6765902471     0.9295712335     0.3567288766
Bq         0.6042104819     0.9541386589     0.8508519495
Bq         0.6910662002     0.9246577484     0.2579042620
Bq         0.5897345288     0.9590521440     0.9496765641
Bq         0.7055421532     0.9197442634     0.1590796474
Bq         0.5752585758     0.9639656291     1.0485011787
Bq         0.7200181062     0.9148307783     0.0602550328
Bq         0.6476383410     0.9393982037     0.5543781057
Bq         0.6338745219     1.0441909041     0.6483411156
Bq         0.6628264280     1.0343639340     0.4506918864
Bq         0.6193985689     1.0491043892     0.7471657301
Bq         0.6773023811     1.0294504489     0.3518672718
Bq         0.6049226158     1.0540178743     0.8459903447
Bq         0.6917783341     1.0245369638     0.2530426572
Bq         0.5904466628     1.0589313594     0.9448149593
Bq         0.7062542871     1.0196234787     0.1542180426
Bq         0.5759707097     1.0638448445     1.0436395739
Bq         0.7207302402     1.0147099936     0.0553934281
Bq         0.6483504750     1.0392774191     0.5495165010
Bq         0.6345866559     1.1440701195     0.6434795108
Bq         0.6635385619     1.1342431494     0.4458302816
Bq         0.6201107028     1.1489836046     0.7423041254
Bq         0.6780145150     1.1293296643     0.3470056670
Bq         0.6056347498     1.1538970897     0.8411287400
Bq         0.6924904680     1.1244161792     0.2481810525
Bq         0.5911587967     1.1588105748     0.9399533546
Bq         0.7069664211     1.1195026941     0.1493564379
Bq         0.5766828437     1.1637240599     1.0387779691
Bq         0.7214423741     1.1145892090     0.0505318233
Bq         0.6490626089     1.1391566344     0.5446548962
Bq         0.6352987898     1.2439493349     0.6386179060
Bq         0.6642506959     1.2341223647     0.4409686769
Bq         0.6208228368     1.2488628200     0.7374425206
Bq         0.6787266489     1.2292088797     0.3421440623
Bq         0.6063468837     1.2537763051     0.8362671352
Bq         0.6932026020     1.2242953946     0.2433194477
Bq         0.5918709307     1.2586897901     0.9350917498
Bq         0.7076785550     1.2193819095     0.1444948331
Bq         0.5773949776     1.2636032752     1.0339163644
Bq         0.7221545081     1.2144684244     0.0456702185
Bq         0.6497747428     1.2390358498     0.5397932914
Bq         0.6360109237     1.3438285503     0.6337563013
Bq         0.6649628298     1.3340015801     0.4361070721
Bq         0.6215349707     1.3487420354     0.7325809158
Bq         0.6794387829     1.3290880950     0.3372824575
Bq         0.6070590177     1.3536555204     0.8314055304
Bq         0.6939147359     1.3241746099     0.2384578429
Bq         0.5925830646     1.3585690055     0.9302301450
Bq         0.7083906890     1.3192611249     0.1396332283
Bq         0.5781071116     1.3634824906     1.0290547596
Bq         0.7228666420     1.3143476398     0.0408086138
Bq         0.6504868768     1.3389150652     0.5349316867
Bq         0.6367230577     1.4437077657     0.6288946965
Bq         0.6656749638     1.4338807955     0.4312454673
Bq         0.6222471046     1.4486212507     0.7277193111
Bq         0.6801509168     1.4289673104     0.3324208527
Bq         0.6077711516     1.4535347358     0.8265439257
Bq         0.6946268699     1.4240538253     0.2335962382
Bq         0.5932951986     1.4584482209     0.9253685403
Bq         0.7091028229     1.4191403402     0.1347716236
Bq         0.5788192455     1.4633617060     1.0241931548
Bq         0.7235787760     1.4142268552     0.0359470090
Bq         0.6511990107     1.4387942806     0.5300700819
Bq         0.6374351916     1.5435869810     0.6240330917
Bq         0.6663870977     1.5337600109     0.4263838626
Bq         0.6229592386     1.5485004661     0.7228577063
Bq         0.6808630508     1.5288465258     0.3275592480
Bq         0.6084832855     1.5534139512     0.8216823209
Bq         0.6953390038     1.5239330407     0.2287346334
Bq         0.5940073325     1.5583274363     0.9205069355
Bq         0.7098149568     1.5190195556     0.1299100188
Bq         0.5795313795     1.5632409214     1.0193315501
Bq         0.7242909099     1.5141060705     0.0310854042
Bq         0.6519111447     1.5386734959     0.5252084771
Bq         0.6381473256     1.6434661964     0.6191714870
Bq         0.6670992317     1.6336392262     0.4215222578
Bq         0.6236713725     1.6483796815     0.7179961016
Bq         0.6815751847     1.6287257412     0.3226976432

1
2
3
4
5
6
7
8
9
10
11
12
13
14
15
16
17
18
19
20
21
22
23
24
25
26
27
28
29
30
31
32
33
34
35
36
37
38
39
40
41
42
43
44
45
46
47
48
49
50
51
52
53
54
55
56
57
58
59
60
61
62
63
64
65
66
67
68
69
70
71
72
73
74
75
76
77
78
79
80
81
82
83
84
85
86
87
88
89
90
91
92
93
94
95
96
97
98
99
100
101
102
103
104
105
106
107
108
109
110
111
112
113
114
115
116
117
118
119
120
121
122
123
124
125
126
127
128
129
130
131
132
133
134
135
136
137
138
139
140
141
142
143
144
145
146
147
148
149
150
151
152
153
154
155
156
157
158
159
160
161
162
163
164
165
166
167
168
169
170
171
172
173
174
175
176
177
178
179
180
181
182
183
184
185
186
187
188
189
190
191
192
193
194
195
196
197
198
199
200
201
202
203
204
205
206
207
208
209
210
211
212
213
214
215
216
217
218
219
220
221
222
223
224
225
226
227
228
229
230
231
232
233
234
235
236

