%nproc=8
%mem=1000MB
# rb3lyp/6-311+g** NMR geom=connectivity

Title

0 1
C    -4.0500558   -0.5771862    0.8136712
H    -5.0263804   -1.0082727    1.0024760
C    -3.9381552    0.6617804    0.2400876
H    -4.8252424    1.2338890   -0.0111295
C    -2.6768410    1.2433246    0.0057578
C    -1.4974121    0.5051527    0.2848253
C    -1.6508332   -0.7338728    0.9404026
H    -0.7713646   -1.2730967    1.2633753
C    -2.8898548   -1.2624035    1.1994307
H    -2.9683706   -2.2124563    1.7152676
C    -2.5773185    2.5963696   -0.4192930
H    -3.4870728    3.1412239   -0.6474055
C    -1.3741895    3.2147896   -0.4364030
H    -1.2997315    4.2742019   -0.6578144
C    -0.1719488    2.4994090   -0.1734588
C    -0.2043917    1.1018437    0.0192689
C     1.0513491    3.2042560   -0.0676222
H     1.0427344    4.2819499   -0.1896997
C     2.1942091    2.5487446    0.2579577
H     3.1168527    3.0912848    0.4334727
C     2.2216473    1.1336562    0.2934990
C     1.0486931    0.3945528    0.0302412
C     3.4483363    0.4614633    0.5573939
H     4.3095794    1.0606054    0.8334846
C     3.5427346   -0.8855926    0.4749463
H     4.4731467   -1.3939704    0.7038822
C     2.4490052   -1.6474447   -0.0196319
C     1.2150704   -1.0057258   -0.3013573
C     0.2531113   -1.7434440   -1.0216591
H    -0.6541356   -1.2535051   -1.3462847
C     0.4494193   -3.0628597   -1.3413779
H    -0.3083162   -3.5944309   -1.9054060
C     1.6251726   -3.7207967   -0.9552541
H     1.7670048   -4.7687404   -1.1927019
C     2.6109872   -3.0144177   -0.3183050
H     3.5525612   -3.4902813   -0.0646367
Bq         0.9920776903    -0.3998474711     0.1082998195
Bq         0.8636833687    -0.4709857663     0.5862686899
Bq         1.0177565546    -0.3856198121     0.0127060454
Bq         0.8380045044    -0.4852134253     0.6818624640
Bq         1.0434354189    -0.3713921531    -0.0828877287
Bq         0.8123256400    -0.4994410843     0.7774562381
Bq         1.0691142833    -0.3571644940    -0.1784815028
Bq         0.9407199617    -0.4283027892     0.2994873677
Bq         0.9113500468    -0.3435477542     0.4088216813
Bq         0.9627077754    -0.3150924361     0.2176341331
Bq         0.8856711825    -0.3577754132     0.5044154554
Bq         0.9883866398    -0.3008647771     0.1220403590
Bq         0.8599923181    -0.3720030722     0.6000092295
Bq         1.0140655041    -0.2866371181     0.0264465849
Bq         0.8343134538    -0.3862307313     0.6956030036
Bq         1.0397443684    -0.2724094590    -0.0691471892
Bq         0.8086345895    -0.4004583903     0.7911967777
Bq         1.0654232327    -0.2581818000    -0.1647409633
Bq         0.9370289111    -0.3293200951     0.3132279072
Bq         0.9076589963    -0.2445650601     0.4225622209
Bq         0.9590167249    -0.2161097421     0.2313746727
Bq         0.8819801319    -0.2587927192     0.5181559950
Bq         0.9846955892    -0.2018820830     0.1357808986
Bq         0.8563012676    -0.2730203782     0.6137497691
Bq         1.0103744535    -0.1876544240     0.0401871245
Bq         0.8306224033    -0.2872480372     0.7093435432
Bq         1.0360533179    -0.1734267650    -0.0554066496
Bq         0.8049435390    -0.3014756962     0.8049373172
Bq         1.0617321822    -0.1591991060    -0.1510004237
Bq         0.9333378606    -0.2303374011     0.3269684468
Bq         0.9039679457    -0.1455823661     0.4363027604
Bq         0.9553256744    -0.1171270480     0.2451152122
Bq         0.8782890814    -0.1598100251     0.5318965345
Bq         0.9810045387    -0.1028993890     0.1495214381
Bq         0.8526102171    -0.1740376842     0.6274903086
Bq         1.0066834030    -0.0886717300     0.0539276641
Bq         0.8269313528    -0.1882653432     0.7230840827
Bq         1.0323622673    -0.0744440710    -0.0416661100
Bq         0.8012524884    -0.2024930022     0.8186778568
Bq         1.0580411317    -0.0602164119    -0.1372598841
Bq         0.9296468100    -0.1313547071     0.3407089863
Bq         0.9002768952    -0.0465996721     0.4500433000
Bq         0.9516346238    -0.0181443540     0.2588557518
Bq         0.8745980309    -0.0608273311     0.5456370741
Bq         0.9773134882    -0.0039166950     0.1632619777
Bq         0.8489191665    -0.0750549901     0.6412308482
Bq         1.0029923525     0.0103109641     0.0676682036
Bq         0.8232403022    -0.0892826491     0.7368246223
Bq         1.0286712168     0.0245386231    -0.0279255705
Bq         0.7975614379    -0.1035103082     0.8324183964
Bq         1.0543500811     0.0387662821    -0.1235193446
Bq         0.9259557595    -0.0323720130     0.3544495259
Bq         0.8965858447     0.0523830220     0.4637838395
Bq         0.9479435733     0.0808383400     0.2725962914
Bq         0.8709069803     0.0381553629     0.5593776136
Bq         0.9736224376     0.0950659991     0.1770025173
Bq         0.8452281160     0.0239277039     0.6549713877
Bq         0.9993013019     0.1092936581     0.0814087432
Bq         0.8195492517     0.0097000449     0.7505651618
Bq         1.0249801663     0.1235213171    -0.0141850309
Bq         0.7938703874    -0.0045276141     0.8461589359
Bq         1.0506590306     0.1377489761    -0.1097788050
Bq         0.9222647090     0.0666106810     0.3681900655
Bq         0.8928947941     0.1513657160     0.4775243791
Bq         0.9442525228     0.1798210341     0.2863368309
Bq         0.8672159298     0.1371380570     0.5731181532
Bq         0.9699313871     0.1940486931     0.1907430568
Bq         0.8415370655     0.1229103980     0.6687119273
Bq         0.9956102514     0.2082763521     0.0951492827
Bq         0.8158582011     0.1086827389     0.7643057014
Bq         1.0212891157     0.2225040112    -0.0004444914
Bq         0.7901793368     0.0944550799     0.8598994755
Bq         1.0469679801     0.2367316702    -0.0960382655
Bq         0.9185736584     0.1655933750     0.3819306050
Bq         0.8892037436     0.2503484100     0.4912649187
Bq         0.9405614722     0.2788037281     0.3000773705
Bq         0.8635248793     0.2361207510     0.5868586928
Bq         0.9662403365     0.2930313871     0.2044835964
Bq         0.8378460149     0.2218930920     0.6824524669
Bq         0.9919192009     0.3072590462     0.1088898223
Bq         0.8121671506     0.2076654330     0.7780462409
Bq         1.0175980652     0.3214867052     0.0132960482
Bq         0.7864882863     0.1934377739     0.8736400150
Bq         1.0432769295     0.3357143642    -0.0822977259
Bq         0.9148826079     0.2645760691     0.3956711446
Bq         0.8855126930     0.3493311041     0.5050054582
Bq         0.9368704217     0.3777864221     0.3138179100
Bq         0.8598338287     0.3351034451     0.6005992323
Bq         0.9625492860     0.3920140812     0.2182241359
Bq         0.8341549644     0.3208757860     0.6961930064
Bq         0.9882281503     0.4062417402     0.1226303618
Bq         0.8084761001     0.3066481270     0.7917867805
Bq         1.0139070147     0.4204693992     0.0270365878
Bq         0.7827972358     0.2924204680     0.8873805546
Bq         1.0395858790     0.4346970583    -0.0685571863
Bq         0.9111915574     0.3635587631     0.4094116841
Bq         0.8818216425     0.4483137981     0.5187459978
Bq         0.9331793712     0.4767691162     0.3275584496
Bq         0.8561427782     0.4340861391     0.6143397719
Bq         0.9588582355     0.4909967752     0.2319646755
Bq         0.8304639139     0.4198584801     0.7099335460
Bq         0.9845370998     0.5052244342     0.1363709014
Bq         0.8047850495     0.4056308210     0.8055273201
Bq         1.0102159641     0.5194520933     0.0407771273
Bq         0.7791061852     0.3914031620     0.9011210942
Bq         1.0358948284     0.5336797523    -0.0548166468
Bq         0.9075005068     0.4625414571     0.4231522237
Bq         0.8781305920     0.5472964922     0.5324865373
Bq         0.9294883206     0.5757518102     0.3412989892
Bq         0.8524517277     0.5330688331     0.6280803114
Bq         0.9551671849     0.5899794692     0.2457052151
Bq         0.8267728633     0.5188411741     0.7236740855
Bq         0.9808460493     0.6042071283     0.1501114410
Bq         0.8010939990     0.5046135151     0.8192678596
Bq         1.0065249136     0.6184347873     0.0545176669
Bq         0.7754151347     0.4903858560     0.9148616337
Bq         1.0322037779     0.6326624463    -0.0410761072
Bq         0.9038094563     0.5615241512     0.4368927632
Bq         0.8744395414     0.6462791862     0.5462270769
Bq         0.9257972701     0.6747345042     0.3550395287
Bq         0.8487606771     0.6320515272     0.6418208510
Bq         0.9514761344     0.6889621633     0.2594457546
Bq         0.8230818128     0.6178238681     0.7374146251
Bq         0.9771549987     0.7031898223     0.1638519805
Bq         0.7974029485     0.6035962091     0.8330083992
Bq         1.0028338631     0.7174174813     0.0682582064
Bq         0.7717240841     0.5893685501     0.9286021733
Bq         1.0285127274     0.7316451404    -0.0273355677
Bq         0.9001184058     0.6605068452     0.4506333028
Bq         0.8707484909     0.7452618802     0.5599676165
Bq         0.9221062195     0.7737171983     0.3687800683
Bq         0.8450696266     0.7310342212     0.6555613906
Bq         0.9477850839     0.7879448573     0.2731862942
Bq         0.8193907623     0.7168065622     0.7511551646
Bq         0.9734639482     0.8021725163     0.1775925201
Bq         0.7937118979     0.7025789031     0.8467489387
Bq         0.9991428125     0.8164001754     0.0819987460
Bq         0.7680330336     0.6883512441     0.9423427128
Bq         1.0248216768     0.8306278344    -0.0135950281
Bq         0.8964273552     0.7594895393     0.4643738424
Bq         0.8670574404     0.8442445743     0.5737081560
Bq         0.9184151690     0.8726998923     0.3825206078
Bq         0.8413785760     0.8300169152     0.6693019301
Bq         0.9440940333     0.8869275513     0.2869268337
Bq         0.8156997117     0.8157892562     0.7648957042
Bq         0.9697728977     0.9011552104     0.1913330596
Bq         0.7900208474     0.8015615972     0.8604894783
Bq         0.9954517620     0.9153828694     0.0957392855
Bq         0.7643419831     0.7873339381     0.9560832524
Bq         1.0211306263     0.9296105284     0.0001455114
Bq         0.8927363047     0.8584722333     0.4781143819
Bq         0.8633663898     0.9432272683     0.5874486956
Bq         0.9147241185     0.9716825864     0.3962611474
Bq         0.8376875255     0.9289996093     0.6830424697
Bq         0.9404029828     0.9859102454     0.3006673733
Bq         0.8120086612     0.9147719502     0.7786362438
Bq         0.9660818471     1.0001379044     0.2050735992
Bq         0.7863297969     0.9005442912     0.8742300179
Bq         0.9917607114     1.0143655634     0.1094798251
Bq         0.7606509325     0.8863166322     0.9698237920
Bq         1.0174395758     1.0285932225     0.0138860510
Bq         0.8890452542     0.9574549273     0.4918549215
Bq         0.8596753393     1.0422099623     0.6011892351
Bq         0.9110330679     1.0706652804     0.4100016869
Bq         0.8339964750     1.0279823033     0.6967830092
Bq         0.9367119323     1.0848929394     0.3144079129
Bq         0.8083176107     1.0137546443     0.7923767833
Bq         0.9623907966     1.0991205984     0.2188141388
Bq         0.7826387463     0.9995269852     0.8879705574
Bq         0.9880696609     1.1133482575     0.1232203647
Bq         0.7569598820     0.9852993262     0.9835643315
Bq         1.0137485252     1.1275759165     0.0276265906
Bq         0.8853542036     1.0564376214     0.5055954610
Bq         0.8559842888     1.1411926564     0.6149297747
Bq         0.9073420174     1.1696479744     0.4237422265
Bq         0.8303054244     1.1269649973     0.7105235488
Bq         0.9330208817     1.1838756335     0.3281484524
Bq         0.8046265601     1.1127373383     0.8061173229
Bq         0.9586997461     1.1981032925     0.2325546783
Bq         0.7789476958     1.0985096793     0.9017110970
Bq         0.9843786104     1.2123309515     0.1369609042
Bq         0.7532688315     1.0842820203     0.9973048711
Bq         1.0100574747     1.2265586105     0.0413671301
Bq         0.8816631531     1.1554203154     0.5193360006
Bq         0.8522932382     1.2401753504     0.6286703143
Bq         0.9036509669     1.2686306685     0.4374827661
Bq         0.8266143739     1.2259476914     0.7242640883
Bq         0.9293298312     1.2828583275     0.3418889920
Bq         0.8009355096     1.2117200323     0.8198578624
Bq         0.9550086955     1.2970859865     0.2462952179
Bq         0.7752566453     1.1974923733     0.9154516365
Bq         0.9806875598     1.3113136455     0.1507014438
Bq         0.7495777809     1.1832647143     1.0110454106
Bq         1.0063664242     1.3255413046     0.0551076697
Bq         0.8779721025     1.2544030094     0.5330765402
Bq         0.8486021877     1.3391580444     0.6424108538
Bq         0.8999599163     1.3676133625     0.4512233056
Bq         0.8229233234     1.3249303854     0.7380046279
Bq         0.9256387807     1.3818410215     0.3556295315
Bq         0.7972444590     1.3107027264     0.8335984020

1
2
3
4
5
6
7
8
9
10
11
12
13
14
15
16
17
18
19
20
21
22
23
24
25
26
27
28
29
30
31
32
33
34
35
36
37
38
39
40
41
42
43
44
45
46
47
48
49
50
51
52
53
54
55
56
57
58
59
60
61
62
63
64
65
66
67
68
69
70
71
72
73
74
75
76
77
78
79
80
81
82
83
84
85
86
87
88
89
90
91
92
93
94
95
96
97
98
99
100
101
102
103
104
105
106
107
108
109
110
111
112
113
114
115
116
117
118
119
120
121
122
123
124
125
126
127
128
129
130
131
132
133
134
135
136
137
138
139
140
141
142
143
144
145
146
147
148
149
150
151
152
153
154
155
156
157
158
159
160
161
162
163
164
165
166
167
168
169
170
171
172
173
174
175
176
177
178
179
180
181
182
183
184
185
186
187
188
189
190
191
192
193
194
195
196
197
198
199
200
201
202
203
204
205
206
207
208
209
210
211
212
213
214
215
216
217
218
219
220
221
222
223
224
225
226
227
228
229
230
231
232
233
234
235
236

