%nproc=8
%mem=1000MB
# rb3lyp/6-311+g** NMR geom=connectivity

Title

0 1
C    -4.0500558   -0.5771862    0.8136712
H    -5.0263804   -1.0082727    1.0024760
C    -3.9381552    0.6617804    0.2400876
H    -4.8252424    1.2338890   -0.0111295
C    -2.6768410    1.2433246    0.0057578
C    -1.4974121    0.5051527    0.2848253
C    -1.6508332   -0.7338728    0.9404026
H    -0.7713646   -1.2730967    1.2633753
C    -2.8898548   -1.2624035    1.1994307
H    -2.9683706   -2.2124563    1.7152676
C    -2.5773185    2.5963696   -0.4192930
H    -3.4870728    3.1412239   -0.6474055
C    -1.3741895    3.2147896   -0.4364030
H    -1.2997315    4.2742019   -0.6578144
C    -0.1719488    2.4994090   -0.1734588
C    -0.2043917    1.1018437    0.0192689
C     1.0513491    3.2042560   -0.0676222
H     1.0427344    4.2819499   -0.1896997
C     2.1942091    2.5487446    0.2579577
H     3.1168527    3.0912848    0.4334727
C     2.2216473    1.1336562    0.2934990
C     1.0486931    0.3945528    0.0302412
C     3.4483363    0.4614633    0.5573939
H     4.3095794    1.0606054    0.8334846
C     3.5427346   -0.8855926    0.4749463
H     4.4731467   -1.3939704    0.7038822
C     2.4490052   -1.6474447   -0.0196319
C     1.2150704   -1.0057258   -0.3013573
C     0.2531113   -1.7434440   -1.0216591
H    -0.6541356   -1.2535051   -1.3462847
C     0.4494193   -3.0628597   -1.3413779
H    -0.3083162   -3.5944309   -1.9054060
C     1.6251726   -3.7207967   -0.9552541
H     1.7670048   -4.7687404   -1.1927019
C     2.6109872   -3.0144177   -0.3183050
H     3.5525612   -3.4902813   -0.0646367
Bq        -0.9888902822    -1.5207636757     1.8641904617
Bq        -0.9890733455    -1.3872295660     1.9107587775
Bq        -0.9883653544    -1.4741950001     1.7306573837
Bq        -0.9894273411    -1.3437468490     2.0008094744
Bq        -0.9880113588    -1.5176777171     1.6406066869
Bq        -0.9897813367    -1.3002641320     2.0908601713
Bq        -0.9876573632    -1.5611604341     1.5505559900
Bq        -0.9901353323    -1.2567814150     2.1809108682
Bq        -0.9873033677    -1.6046431511     1.4605052931
Bq        -0.9904893278    -1.2132986980     2.2709615650
Bq        -0.9869493721    -1.6481258681     1.3704545962
Bq        -0.9887193500    -1.4307122830     1.8207080806
Bq        -0.9889024133    -1.2971781734     1.8672763965
Bq        -0.9881944221    -1.3841436074     1.6871750027
Bq        -0.9892564088    -1.2536954564     1.9573270934
Bq        -0.9878404265    -1.4276263244     1.5971243058
Bq        -0.9896104044    -1.2102127394     2.0473777902
Bq        -0.9874864310    -1.4711090414     1.5070736089
Bq        -0.9899644000    -1.1667300224     2.1374284871
Bq        -0.9871324354    -1.5145917584     1.4170229121
Bq        -0.9903183956    -1.1232473054     2.2274791840
Bq        -0.9867784398    -1.5580744754     1.3269722152
Bq        -0.9885484177    -1.3406608904     1.7772256996
Bq        -0.9887314810    -1.2071267807     1.8237940154
Bq        -0.9880234898    -1.2940922147     1.6436926217
Bq        -0.9890854766    -1.1636440637     1.9138447123
Bq        -0.9876694943    -1.3375749317     1.5536419248
Bq        -0.9894394721    -1.1201613467     2.0038954092
Bq        -0.9873154987    -1.3810576487     1.4635912279
Bq        -0.9897934677    -1.0766786297     2.0939461061
Bq        -0.9869615031    -1.4245403657     1.3735405310
Bq        -0.9901474633    -1.0331959127     2.1839968030
Bq        -0.9866075075    -1.4680230827     1.2834898341
Bq        -0.9883774854    -1.2506094977     1.7337433186
Bq        -0.9885605487    -1.1170753880     1.7803116344
Bq        -0.9878525576    -1.2040408220     1.6002102406
Bq        -0.9889145443    -1.0735926710     1.8703623313
Bq        -0.9874985620    -1.2475235390     1.5101595438
Bq        -0.9892685399    -1.0301099540     1.9604130282
Bq        -0.9871445664    -1.2910062560     1.4201088469
Bq        -0.9896225354    -0.9866272370     2.0504637251
Bq        -0.9867905708    -1.3344889731     1.3300581500
Bq        -0.9899765310    -0.9431445200     2.1405144219
Bq        -0.9864365753    -1.3779716901     1.2400074531
Bq        -0.9882065531    -1.1605581050     1.6902609375
Bq        -0.9883896164    -1.0270239954     1.7368292534
Bq        -0.9876816253    -1.1139894294     1.5567278596
Bq        -0.9887436120    -0.9835412784     1.8268799503
Bq        -0.9873276297    -1.1574721464     1.4666771627
Bq        -0.9890976076    -0.9400585614     1.9169306471
Bq        -0.9869736341    -1.2009548634     1.3766264658
Bq        -0.9894516032    -0.8965758443     2.0069813440
Bq        -0.9866196386    -1.2444375804     1.2865757690
Bq        -0.9898055987    -0.8530931273     2.0970320409
Bq        -0.9862656430    -1.2879202974     1.1965250721
Bq        -0.9880356209    -1.0705067124     1.6467785565
Bq        -0.9882186842    -0.9369726027     1.6933468723
Bq        -0.9875106930    -1.0239380367     1.5132454786
Bq        -0.9885726797    -0.8934898857     1.7833975692
Bq        -0.9871566974    -1.0674207537     1.4231947817
Bq        -0.9889266753    -0.8500071687     1.8734482661
Bq        -0.9868027019    -1.1109034707     1.3331440848
Bq        -0.9892806709    -0.8065244517     1.9634989630
Bq        -0.9864487063    -1.1543861877     1.2430933879
Bq        -0.9896346665    -0.7630417347     2.0535496599
Bq        -0.9860947107    -1.1978689047     1.1530426910
Bq        -0.9878646886    -0.9804553197     1.6032961755
Bq        -0.9880477519    -0.8469212100     1.6498644913
Bq        -0.9873397607    -0.9338866440     1.4697630975
Bq        -0.9884017475    -0.8034384930     1.7399151882
Bq        -0.9869857652    -0.9773693610     1.3797124007
Bq        -0.9887557430    -0.7599557760     1.8299658851
Bq        -0.9866317696    -1.0208520780     1.2896617038
Bq        -0.9891097386    -0.7164730590     1.9200165820
Bq        -0.9862777740    -1.0643347950     1.1996110069
Bq        -0.9894637342    -0.6729903420     2.0100672788
Bq        -0.9859237784    -1.1078175120     1.1095603100
Bq        -0.9876937563    -0.8904039270     1.5598137944
Bq        -0.9878768196    -0.7568698173     1.6063821103
Bq        -0.9871688285    -0.8438352514     1.4262807165
Bq        -0.9882308152    -0.7133871003     1.6964328072
Bq        -0.9868148329    -0.8873179684     1.3362300196
Bq        -0.9885848108    -0.6699043833     1.7864835040
Bq        -0.9864608373    -0.9308006854     1.2461793227
Bq        -0.9889388063    -0.6264216663     1.8765342009
Bq        -0.9861068417    -0.9742834024     1.1561286259
Bq        -0.9892928019    -0.5829389493     1.9665848978
Bq        -0.9857528462    -1.0177661194     1.0660779290
Bq        -0.9875228240    -0.8003525344     1.5163314134
Bq        -0.9877058873    -0.6668184247     1.5628997292
Bq        -0.9869978962    -0.7537838587     1.3827983355
Bq        -0.9880598829    -0.6233357077     1.6529504261
Bq        -0.9866439006    -0.7972665757     1.2927476386
Bq        -0.9884138785    -0.5798529907     1.7430011230
Bq        -0.9862899050    -0.8407492927     1.2026969417
Bq        -0.9887678741    -0.5363702737     1.8330518199
Bq        -0.9859359095    -0.8842320097     1.1126462448
Bq        -0.9891218696    -0.4928875567     1.9231025168
Bq        -0.9855819139    -0.9277147267     1.0225955480
Bq        -0.9873518918    -0.7103011417     1.4728490324
Bq        -0.9875349551    -0.5767670320     1.5194173482
Bq        -0.9868269639    -0.6637324660     1.3393159544
Bq        -0.9878889506    -0.5332843150     1.6094680451
Bq        -0.9864729683    -0.7072151830     1.2492652576
Bq        -0.9882429462    -0.4898015980     1.6995187420
Bq        -0.9861189728    -0.7506979000     1.1592145607
Bq        -0.9885969418    -0.4463188810     1.7895694389
Bq        -0.9857649772    -0.7941806170     1.0691638638
Bq        -0.9889509374    -0.4028361640     1.8796201357
Bq        -0.9854109816    -0.8376633340     0.9791131669
Bq        -0.9871809595    -0.6202497490     1.4293666513
Bq        -0.9873640228    -0.4867156393     1.4759349672
Bq        -0.9866560316    -0.5736810733     1.2958335734
Bq        -0.9877180184    -0.4432329223     1.5659856641
Bq        -0.9863020361    -0.6171637904     1.2057828765
Bq        -0.9880720139    -0.3997502053     1.6560363609
Bq        -0.9859480405    -0.6606465074     1.1157321797
Bq        -0.9884260095    -0.3562674883     1.7460870578
Bq        -0.9855940449    -0.7041292244     1.0256814828
Bq        -0.9887800051    -0.3127847713     1.8361377547
Bq        -0.9852400493    -0.7476119414     0.9356307859
Bq        -0.9870100272    -0.5301983563     1.3858842703
Bq        -0.9871930905    -0.3966642467     1.4324525861
Bq        -0.9864850994    -0.4836296807     1.2523511924
Bq        -0.9875470861    -0.3531815297     1.5225032830
Bq        -0.9861311038    -0.5271123977     1.1623004955
Bq        -0.9879010817    -0.3096988127     1.6125539799
Bq        -0.9857771082    -0.5705951147     1.0722497986
Bq        -0.9882550772    -0.2662160957     1.7026046768
Bq        -0.9854231126    -0.6140778317     0.9821991017
Bq        -0.9886090728    -0.2227333786     1.7926553737
Bq        -0.9850691171    -0.6575605487     0.8921484049
Bq        -0.9868390949    -0.4401469637     1.3424018893
Bq        -0.9870221582    -0.3066128540     1.3889702051
Bq        -0.9863141671    -0.3935782880     1.2088688114
Bq        -0.9873761538    -0.2631301370     1.4790209020
Bq        -0.9859601715    -0.4370610050     1.1188181145
Bq        -0.9877301494    -0.2196474200     1.5690715989
Bq        -0.9856061759    -0.4805437220     1.0287674176
Bq        -0.9880841450    -0.1761647030     1.6591222958
Bq        -0.9852521804    -0.5240264390     0.9387167207
Bq        -0.9884381405    -0.1326819860     1.7491729926
Bq        -0.9848981848    -0.5675091560     0.8486660238
Bq        -0.9866681627    -0.3500955710     1.2989195082
Bq        -0.9868512260    -0.2165614613     1.3454878241
Bq        -0.9861432348    -0.3035268953     1.1653864303
Bq        -0.9872052215    -0.1730787443     1.4355385210
Bq        -0.9857892392    -0.3470096123     1.0753357334
Bq        -0.9875592171    -0.1295960273     1.5255892178
Bq        -0.9854352437    -0.3904923293     0.9852850366
Bq        -0.9879132127    -0.0861133103     1.6156399147
Bq        -0.9850812481    -0.4339750463     0.8952343397
Bq        -0.9882672083    -0.0426305933     1.7056906116
Bq        -0.9847272525    -0.4774577634     0.8051836428
Bq        -0.9864972304    -0.2600441783     1.2554371272
Bq        -0.9866802937    -0.1265100687     1.3020054431
Bq        -0.9859723025    -0.2134755027     1.1219040493
Bq        -0.9870342893    -0.0830273517     1.3920561399
Bq        -0.9856183070    -0.2569582197     1.0318533524
Bq        -0.9873882848    -0.0395446346     1.4821068368
Bq        -0.9852643114    -0.3004409367     0.9418026555
Bq        -0.9877422804     0.0039380824     1.5721575337
Bq        -0.9849103158    -0.3439236537     0.8517519586
Bq        -0.9880962760     0.0474207994     1.6622082306
Bq        -0.9845563202    -0.3874063707     0.7617012618
Bq        -0.9863262981    -0.1699927857     1.2119547462
Bq        -0.9865093614    -0.0364586760     1.2585230620
Bq        -0.9858013703    -0.1234241100     1.0784216683
Bq        -0.9868633570     0.0070240410     1.3485737589
Bq        -0.9854473747    -0.1669068270     0.9883709714
Bq        -0.9872173526     0.0505067580     1.4386244558
Bq        -0.9850933791    -0.2103895440     0.8983202745
Bq        -0.9875713481     0.0939894750     1.5286751527
Bq        -0.9847393835    -0.2538722610     0.8082695776
Bq        -0.9879253437     0.1374721920     1.6187258495
Bq        -0.9843853880    -0.2973549780     0.7182188807
Bq        -0.9861553658    -0.0799413930     1.1684723651
Bq        -0.9863384291     0.0535927167     1.2150406810
Bq        -0.9856304380    -0.0333727173     1.0349392872
Bq        -0.9866924247     0.0970754337     1.3050913779
Bq        -0.9852764424    -0.0768554343     0.9448885903
Bq        -0.9870464203     0.1405581507     1.3951420748
Bq        -0.9849224468    -0.1203381513     0.8548378935
Bq        -0.9874004159     0.1840408677     1.4851927716
Bq        -0.9845684513    -0.1638208683     0.7647871966
Bq        -0.9877544114     0.2275235847     1.5752434685
Bq        -0.9842144557    -0.2073035853     0.6747364997
Bq        -0.9859844336     0.0101099997     1.1249899841
Bq        -0.9861674969     0.1436441094     1.1715583000
Bq        -0.9854595057     0.0566786753     0.9914569062
Bq        -0.9865214924     0.1871268264     1.2616089968
Bq        -0.9851055101     0.0131959583     0.9014062093
Bq        -0.9868754880     0.2306095434     1.3516596937
Bq        -0.9847515146    -0.0302867587     0.8113555124
Bq        -0.9872294836     0.2740922604     1.4417103906
Bq        -0.9843975190    -0.0737694757     0.7213048155
Bq        -0.9875834792     0.3175749774     1.5317610875
Bq        -0.9840435234    -0.1172521927     0.6312541187
Bq        -0.9858135013     0.1001613924     1.0815076031
Bq        -0.9859965646     0.2336955020     1.1280759189

1
2
3
4
5
6
7
8
9
10
11
12
13
14
15
16
17
18
19
20
21
22
23
24
25
26
27
28
29
30
31
32
33
34
35
36
37
38
39
40
41
42
43
44
45
46
47
48
49
50
51
52
53
54
55
56
57
58
59
60
61
62
63
64
65
66
67
68
69
70
71
72
73
74
75
76
77
78
79
80
81
82
83
84
85
86
87
88
89
90
91
92
93
94
95
96
97
98
99
100
101
102
103
104
105
106
107
108
109
110
111
112
113
114
115
116
117
118
119
120
121
122
123
124
125
126
127
128
129
130
131
132
133
134
135
136
137
138
139
140
141
142
143
144
145
146
147
148
149
150
151
152
153
154
155
156
157
158
159
160
161
162
163
164
165
166
167
168
169
170
171
172
173
174
175
176
177
178
179
180
181
182
183
184
185
186
187
188
189
190
191
192
193
194
195
196
197
198
199
200
201
202
203
204
205
206
207
208
209
210
211
212
213
214
215
216
217
218
219
220
221
222
223
224
225
226
227
228
229
230
231
232
233
234
235
236

