%nproc=8
%mem=1000MB
# rb3lyp/6-311+g** NMR geom=connectivity

Title

0 1
C    -4.0500558   -0.5771862    0.8136712
H    -5.0263804   -1.0082727    1.0024760
C    -3.9381552    0.6617804    0.2400876
H    -4.8252424    1.2338890   -0.0111295
C    -2.6768410    1.2433246    0.0057578
C    -1.4974121    0.5051527    0.2848253
C    -1.6508332   -0.7338728    0.9404026
H    -0.7713646   -1.2730967    1.2633753
C    -2.8898548   -1.2624035    1.1994307
H    -2.9683706   -2.2124563    1.7152676
C    -2.5773185    2.5963696   -0.4192930
H    -3.4870728    3.1412239   -0.6474055
C    -1.3741895    3.2147896   -0.4364030
H    -1.2997315    4.2742019   -0.6578144
C    -0.1719488    2.4994090   -0.1734588
C    -0.2043917    1.1018437    0.0192689
C     1.0513491    3.2042560   -0.0676222
H     1.0427344    4.2819499   -0.1896997
C     2.1942091    2.5487446    0.2579577
H     3.1168527    3.0912848    0.4334727
C     2.2216473    1.1336562    0.2934990
C     1.0486931    0.3945528    0.0302412
C     3.4483363    0.4614633    0.5573939
H     4.3095794    1.0606054    0.8334846
C     3.5427346   -0.8855926    0.4749463
H     4.4731467   -1.3939704    0.7038822
C     2.4490052   -1.6474447   -0.0196319
C     1.2150704   -1.0057258   -0.3013573
C     0.2531113   -1.7434440   -1.0216591
H    -0.6541356   -1.2535051   -1.3462847
C     0.4494193   -3.0628597   -1.3413779
H    -0.3083162   -3.5944309   -1.9054060
C     1.6251726   -3.7207967   -0.9552541
H     1.7670048   -4.7687404   -1.1927019
C     2.6109872   -3.0144177   -0.3183050
H     3.5525612   -3.4902813   -0.0646367
Bq        -0.7851555796     0.9075379677     0.9145361565
Bq        -0.7837395973     0.7336070997     0.5543333689
Bq        -0.7855095751     0.9510206847     1.0045868533
Bq        -0.7833856017     0.6901243827     0.4642826720
Bq        -0.7858635707     0.9945034017     1.0946375502
Bq        -0.7830316061     0.6466416657     0.3742319752
Bq        -0.7862175663     1.0379861187     1.1846882471
Bq        -0.7826776105     0.6031589487     0.2841812783
Bq        -0.7844475884     0.8205725337     0.7344347627
Bq        -0.7846306517     0.9541066434     0.7810030785
Bq        -0.7839226606     0.8671412094     0.6009016848
Bq        -0.7849846473     0.9975893604     0.8710537754
Bq        -0.7835686650     0.8236584924     0.5108509879
Bq        -0.7853386429     1.0410720774     0.9611044723
Bq        -0.7832146694     0.7801757754     0.4208002910
Bq        -0.7856926384     1.0845547944     1.0511551692
Bq        -0.7828606738     0.7366930584     0.3307495941
Bq        -0.7860466340     1.1280375114     1.1412058661
Bq        -0.7825066783     0.6932103414     0.2406988973
Bq        -0.7842766561     0.9106239264     0.6909523817
Bq        -0.7844597194     1.0441580361     0.7375206975
Bq        -0.7837517283     0.9571926021     0.5574193037
Bq        -0.7848137150     1.0876407531     0.8275713944
Bq        -0.7833977327     0.9137098850     0.4673686069
Bq        -0.7851677106     1.1311234701     0.9176220913
Bq        -0.7830437371     0.8702271680     0.3773179100
Bq        -0.7855217062     1.1746061871     1.0076727882
Bq        -0.7826897416     0.8267444510     0.2872672131
Bq        -0.7858757017     1.2180889041     1.0977234850
Bq        -0.7823357460     0.7832617340     0.1972165162
Bq        -0.7841057239     1.0006753191     0.6474700006
Bq        -0.7842887872     1.1342094287     0.6940383165
Bq        -0.7835807960     1.0472439947     0.5139369227
Bq        -0.7846427827     1.1776921457     0.7840890134
Bq        -0.7832268004     1.0037612777     0.4238862258
Bq        -0.7849967783     1.2211748627     0.8741397102
Bq        -0.7828728049     0.9602785607     0.3338355290
Bq        -0.7853507739     1.2646575797     0.9641904071
Bq        -0.7825188093     0.9167958437     0.2437848321
Bq        -0.7857047695     1.3081402968     1.0542411040
Bq        -0.7821648137     0.8733131267     0.1537341352
Bq        -0.7839347916     1.0907267117     0.6039876196
Bq        -0.7841178549     1.2242608214     0.6505559354
Bq        -0.7834098637     1.1372953874     0.4704545417
Bq        -0.7844718505     1.2677435384     0.7406066323
Bq        -0.7830558682     1.0938126704     0.3804038448
Bq        -0.7848258460     1.3112262554     0.8306573292
Bq        -0.7827018726     1.0503299534     0.2903531479
Bq        -0.7851798416     1.3547089724     0.9207080261
Bq        -0.7823478770     1.0068472364     0.2003024510
Bq        -0.7855338372     1.3981916894     1.0107587230
Bq        -0.7819938814     0.9633645194     0.1102517542
Bq        -0.7837638593     1.1807781044     0.5605052386
Bq        -0.7839469226     1.3143122141     0.6070735544
Bq        -0.7832389315     1.2273467801     0.4269721607
Bq        -0.7843009182     1.3577949311     0.6971242513
Bq        -0.7828849359     1.1838640631     0.3369214638
Bq        -0.7846549138     1.4012776481     0.7871749482
Bq        -0.7825309403     1.1403813461     0.2468707669
Bq        -0.7850089093     1.4447603651     0.8772256451
Bq        -0.7821769447     1.0968986291     0.1568200700
Bq        -0.7853629049     1.4882430821     0.9672763419
Bq        -0.7818229492     1.0534159120     0.0667693731
Bq        -0.7835929270     1.2708294971     0.5170228575
Bq        -0.7837759903     1.4043636067     0.5635911734
Bq        -0.7830679992     1.3173981727     0.3834897796
Bq        -0.7841299859     1.4478463237     0.6536418703
Bq        -0.7827140036     1.2739154557     0.2934390827
Bq        -0.7844839815     1.4913290408     0.7436925671
Bq        -0.7823600080     1.2304327387     0.2033883859
Bq        -0.7848379771     1.5348117578     0.8337432640
Bq        -0.7820060125     1.1869500217     0.1133376890
Bq        -0.7851919726     1.5782944748     0.9237939609
Bq        -0.7816520169     1.1434673047     0.0232869921
Bq        -0.7834219948     1.3608808897     0.4735404765
Bq        -0.7836050581     1.4944149994     0.5201087924
Bq        -0.7828970669     1.4074495654     0.3400073986
Bq        -0.7839590536     1.5378977164     0.6101594892
Bq        -0.7825430713     1.3639668484     0.2499567017
Bq        -0.7843130492     1.5813804334     0.7002101861
Bq        -0.7821890758     1.3204841314     0.1599060048
Bq        -0.7846670448     1.6248631504     0.7902608830
Bq        -0.7818350802     1.2770014144     0.0698553079
Bq        -0.7850210404     1.6683458674     0.8803115799
Bq        -0.7814810846     1.2335186974    -0.0201953889
Bq        -0.7832510625     1.4509322824     0.4300580955
Bq        -0.7834341258     1.5844663921     0.4766264113
Bq        -0.7827261346     1.4975009581     0.2965250176
Bq        -0.7837881214     1.6279491091     0.5666771082
Bq        -0.7823721391     1.4540182411     0.2064743207
Bq        -0.7841421169     1.6714318261     0.6567278051
Bq        -0.7820181435     1.4105355241     0.1164236238
Bq        -0.7844961125     1.7149145431     0.7467785020
Bq        -0.7816641479     1.3670528071     0.0263729269
Bq        -0.7848501081     1.7583972601     0.8368291988
Bq        -0.7813101523     1.3235700901    -0.0636777700
Bq        -0.7830801302     1.5409836751     0.3865757144
Bq        -0.7832631935     1.6745177848     0.4331440303
Bq        -0.7825552024     1.5875523507     0.2530426365
Bq        -0.7836171891     1.7180005018     0.5231947272
Bq        -0.7822012068     1.5440696337     0.1629919396
Bq        -0.7839711847     1.7614832188     0.6132454241
Bq        -0.7818472112     1.5005869167     0.0729412428
Bq        -0.7843251802     1.8049659358     0.7032961209
Bq        -0.7814932156     1.4571041997    -0.0171094541
Bq        -0.7846791758     1.8484486528     0.7933468178
Bq        -0.7811392201     1.4136214827    -0.1071601510
Bq        -0.7829091979     1.6310350678     0.3430933334
Bq        -0.7830922612     1.7645691774     0.3896616493
Bq        -0.7823842701     1.6776037434     0.2095602555
Bq        -0.7834462568     1.8080518944     0.4797123461
Bq        -0.7820302745     1.6341210264     0.1195095586
Bq        -0.7838002524     1.8515346114     0.5697630430
Bq        -0.7816762789     1.5906383094     0.0294588617
Bq        -0.7841542480     1.8950173284     0.6598137399
Bq        -0.7813222834     1.5471555924    -0.0605918352
Bq        -0.7845082435     1.9385000454     0.7498644368
Bq        -0.7809682878     1.5036728754    -0.1506425320
Bq        -0.7827382657     1.7210864604     0.2996109524
Bq        -0.7829213290     1.8546205701     0.3461792682
Bq        -0.7822133378     1.7676551361     0.1660778745
Bq        -0.7832753245     1.8981032871     0.4362299651
Bq        -0.7818593422     1.7241724191     0.0760271776
Bq        -0.7836293201     1.9415860041     0.5262806620
Bq        -0.7815053467     1.6806897021    -0.0140235193
Bq        -0.7839833157     1.9850687211     0.6163313589
Bq        -0.7811513511     1.6372069851    -0.1040742162
Bq        -0.7843373113     2.0285514381     0.7063820558
Bq        -0.7807973555     1.5937242681    -0.1941249131
Bq        -0.7825673334     1.8111378531     0.2561285713
Bq        -0.7827503967     1.9446719628     0.3026968872
Bq        -0.7820424055     1.8577065288     0.1225954934
Bq        -0.7831043923     1.9881546798     0.3927475841
Bq        -0.7816884100     1.8142238118     0.0325447965
Bq        -0.7834583878     2.0316373968     0.4827982810
Bq        -0.7813344144     1.7707410947    -0.0575059003
Bq        -0.7838123834     2.0751201138     0.5728489778
Bq        -0.7809804188     1.7272583777    -0.1475565972
Bq        -0.7841663790     2.1186028308     0.6628996747
Bq        -0.7806264232     1.6837756607    -0.2376072941
Bq        -0.7823964011     1.9011892458     0.2126461903
Bq        -0.7825794644     2.0347233554     0.2592145062
Bq        -0.7818714733     1.9477579214     0.0791131124
Bq        -0.7829334600     2.0782060724     0.3492652030
Bq        -0.7815174777     1.9042752044    -0.0109375845
Bq        -0.7832874556     2.1216887894     0.4393158999
Bq        -0.7811634821     1.8607924874    -0.1009882814
Bq        -0.7836414511     2.1651715065     0.5293665968
Bq        -0.7808094865     1.8173097704    -0.1910389783
Bq        -0.7839954467     2.2086542235     0.6194172937
Bq        -0.7804554910     1.7738270534    -0.2810896751
Bq        -0.7822254688     1.9912406384     0.1691638093
Bq        -0.7824085321     2.1247747481     0.2157321251
Bq        -0.7817005410     2.0378093141     0.0356307314
Bq        -0.7827625277     2.1682574651     0.3057828220
Bq        -0.7813465454     1.9943265971    -0.0544199655
Bq        -0.7831165233     2.2117401821     0.3958335189
Bq        -0.7809925498     1.9508438801    -0.1444706624
Bq        -0.7834705189     2.2552228991     0.4858842158
Bq        -0.7806385543     1.9073611631    -0.2345213593
Bq        -0.7838245144     2.2987056161     0.5759349127
Bq        -0.7802845587     1.8638784461    -0.3245720562
Bq        -0.7820545366     2.0812920311     0.1256814282
Bq        -0.7822375999     2.2148261408     0.1722497441
Bq        -0.7815296087     2.1278607068    -0.0078516497
Bq        -0.7825915954     2.2583088578     0.2623004410
Bq        -0.7811756131     2.0843779898    -0.0979023466
Bq        -0.7829455910     2.3017915748     0.3523511379
Bq        -0.7808216176     2.0408952728    -0.1879530434
Bq        -0.7832995866     2.3452742918     0.4424018347
Bq        -0.7804676220     1.9974125558    -0.2780037403
Bq        -0.7836535822     2.3887570088     0.5324525316
Bq        -0.7801136264     1.9539298388    -0.3680544372
Bq        -0.7818836043     2.1713434238     0.0821990472
Bq        -0.7820666676     2.3048775334     0.1287673631
Bq        -0.7813586764     2.2179120994    -0.0513340307
Bq        -0.7824206632     2.3483602505     0.2188180599
Bq        -0.7810046809     2.1744293824    -0.1413847276
Bq        -0.7827746587     2.3918429675     0.3088687568
Bq        -0.7806506853     2.1309466654    -0.2314354245
Bq        -0.7831286543     2.4353256845     0.3989194537
Bq        -0.7802966897     2.0874639484    -0.3214861214
Bq        -0.7834826499     2.4788084015     0.4889701506
Bq        -0.7799426941     2.0439812314    -0.4115368182
Bq        -0.7817126720     2.2613948164     0.0387166662
Bq        -0.7818957353     2.3949289261     0.0852849820
Bq        -0.7811877442     2.3079634921    -0.0948164117
Bq        -0.7822497309     2.4384116431     0.1753356789
Bq        -0.7808337486     2.2644807751    -0.1848671086
Bq        -0.7826037265     2.4818943601     0.2653863758
Bq        -0.7804797530     2.2209980581    -0.2749178055
Bq        -0.7829577220     2.5253770771     0.3554370727
Bq        -0.7801257574     2.1775153411    -0.3649685024
Bq        -0.7833117176     2.5688597941     0.4454877696
Bq        -0.7797717619     2.1340326241    -0.4550191993
Bq        -0.7815417397     2.3514462091    -0.0047657149
Bq        -0.7817248030     2.4849803188     0.0418026010
Bq        -0.7810168119     2.3980148848    -0.1382987928
Bq        -0.7820787986     2.5284630358     0.1318532979
Bq        -0.7806628163     2.3545321678    -0.2283494897

1
2
3
4
5
6
7
8
9
10
11
12
13
14
15
16
17
18
19
20
21
22
23
24
25
26
27
28
29
30
31
32
33
34
35
36
37
38
39
40
41
42
43
44
45
46
47
48
49
50
51
52
53
54
55
56
57
58
59
60
61
62
63
64
65
66
67
68
69
70
71
72
73
74
75
76
77
78
79
80
81
82
83
84
85
86
87
88
89
90
91
92
93
94
95
96
97
98
99
100
101
102
103
104
105
106
107
108
109
110
111
112
113
114
115
116
117
118
119
120
121
122
123
124
125
126
127
128
129
130
131
132
133
134
135
136
137
138
139
140
141
142
143
144
145
146
147
148
149
150
151
152
153
154
155
156
157
158
159
160
161
162
163
164
165
166
167
168
169
170
171
172
173
174
175
176
177
178
179
180
181
182
183
184
185
186
187
188
189
190
191
192
193
194
195
196
197
198
199
200
201
202
203
204
205
206
207
208
209
210
211
212
213
214
215
216
217
218
219
220
221
222
223
224
225
226
227
228
229
230
231
232
233
234
235
236

