%nproc=8
%mem=1000MB
# rb3lyp/6-311+g** NMR geom=connectivity

Title

0 1
C    -4.0500558   -0.5771862    0.8136712
H    -5.0263804   -1.0082727    1.0024760
C    -3.9381552    0.6617804    0.2400876
H    -4.8252424    1.2338890   -0.0111295
C    -2.6768410    1.2433246    0.0057578
C    -1.4974121    0.5051527    0.2848253
C    -1.6508332   -0.7338728    0.9404026
H    -0.7713646   -1.2730967    1.2633753
C    -2.8898548   -1.2624035    1.1994307
H    -2.9683706   -2.2124563    1.7152676
C    -2.5773185    2.5963696   -0.4192930
H    -3.4870728    3.1412239   -0.6474055
C    -1.3741895    3.2147896   -0.4364030
H    -1.2997315    4.2742019   -0.6578144
C    -0.1719488    2.4994090   -0.1734588
C    -0.2043917    1.1018437    0.0192689
C     1.0513491    3.2042560   -0.0676222
H     1.0427344    4.2819499   -0.1896997
C     2.1942091    2.5487446    0.2579577
H     3.1168527    3.0912848    0.4334727
C     2.2216473    1.1336562    0.2934990
C     1.0486931    0.3945528    0.0302412
C     3.4483363    0.4614633    0.5573939
H     4.3095794    1.0606054    0.8334846
C     3.5427346   -0.8855926    0.4749463
H     4.4731467   -1.3939704    0.7038822
C     2.4490052   -1.6474447   -0.0196319
C     1.2150704   -1.0057258   -0.3013573
C     0.2531113   -1.7434440   -1.0216591
H    -0.6541356   -1.2535051   -1.3462847
C     0.4494193   -3.0628597   -1.3413779
H    -0.3083162   -3.5944309   -1.9054060
C     1.6251726   -3.7207967   -0.9552541
H     1.7670048   -4.7687404   -1.1927019
C     2.6109872   -3.0144177   -0.3183050
H     3.5525612   -3.4902813   -0.0646367
Bq        -4.2849697353     1.2211748627     0.8603810723
Bq        -4.2828457619     0.9602785607     0.3200768910
Bq        -4.2853237309     1.2646575797     0.9504317692
Bq        -4.2824917663     0.9167958437     0.2300261941
Bq        -4.2856777265     1.3081402968     1.0404824660
Bq        -4.2821377707     0.8733131267     0.1399754972
Bq        -4.2839077486     1.0907267117     0.5902289816
Bq        -4.2840908119     1.2242608214     0.6367972975
Bq        -4.2833828208     1.1372953874     0.4566959037
Bq        -4.2844448075     1.2677435384     0.7268479944
Bq        -4.2830288252     1.0938126704     0.3666452068
Bq        -4.2847988031     1.3112262554     0.8168986912
Bq        -4.2826748296     1.0503299534     0.2765945099
Bq        -4.2851527986     1.3547089724     0.9069493881
Bq        -4.2823208340     1.0068472364     0.1865438131
Bq        -4.2855067942     1.3981916894     0.9970000850
Bq        -4.2819668385     0.9633645194     0.0964931162
Bq        -4.2837368163     1.1807781044     0.5467466006
Bq        -4.2839198796     1.3143122141     0.5933149164
Bq        -4.2832118885     1.2273467801     0.4132135227
Bq        -4.2842738752     1.3577949311     0.6833656133
Bq        -4.2828578929     1.1838640631     0.3231628258
Bq        -4.2846278708     1.4012776481     0.7734163102
Bq        -4.2825038973     1.1403813461     0.2331121289
Bq        -4.2849818664     1.4447603651     0.8634670071
Bq        -4.2821499018     1.0968986291     0.1430614320
Bq        -4.2853358619     1.4882430821     0.9535177040
Bq        -4.2817959062     1.0534159120     0.0530107351
Bq        -4.2835658841     1.2708294971     0.5032642196
Bq        -4.2837489474     1.4043636067     0.5498325354
Bq        -4.2830409562     1.3173981727     0.3697311416
Bq        -4.2841029429     1.4478463237     0.6398832323
Bq        -4.2826869606     1.2739154557     0.2796804448
Bq        -4.2844569385     1.4913290408     0.7299339292
Bq        -4.2823329651     1.2304327387     0.1896297479
Bq        -4.2848109341     1.5348117578     0.8199846261
Bq        -4.2819789695     1.1869500217     0.0995790510
Bq        -4.2851649297     1.5782944748     0.9100353229
Bq        -4.2816249739     1.1434673047     0.0095283541
Bq        -4.2833949518     1.3608808897     0.4597818385
Bq        -4.2835780151     1.4944149994     0.5063501544
Bq        -4.2828700239     1.4074495654     0.3262487606
Bq        -4.2839320107     1.5378977164     0.5964008513
Bq        -4.2825160284     1.3639668484     0.2361980637
Bq        -4.2842860062     1.5813804334     0.6864515481
Bq        -4.2821620328     1.3204841314     0.1461473668
Bq        -4.2846400018     1.6248631504     0.7765022450
Bq        -4.2818080372     1.2770014144     0.0560966700
Bq        -4.2849939974     1.6683458674     0.8665529419
Bq        -4.2814540416     1.2335186974    -0.0339540269
Bq        -4.2832240195     1.4509322824     0.4162994575
Bq        -4.2834070828     1.5844663921     0.4628677733
Bq        -4.2826990917     1.4975009581     0.2827663796
Bq        -4.2837610784     1.6279491091     0.5529184702
Bq        -4.2823450961     1.4540182411     0.1927156827
Bq        -4.2841150740     1.6714318261     0.6429691671
Bq        -4.2819911005     1.4105355241     0.1026649858
Bq        -4.2844690695     1.7149145431     0.7330198640
Bq        -4.2816371049     1.3670528071     0.0126142889
Bq        -4.2848230651     1.7583972601     0.8230705609
Bq        -4.2812831094     1.3235700901    -0.0774364080
Bq        -4.2830530872     1.5409836751     0.3728170765
Bq        -4.2832361505     1.6745177848     0.4193853923
Bq        -4.2825281594     1.5875523507     0.2392839985
Bq        -4.2835901461     1.7180005018     0.5094360892
Bq        -4.2821741638     1.5440696337     0.1492333017
Bq        -4.2839441417     1.7614832188     0.5994867861
Bq        -4.2818201682     1.5005869167     0.0591826048
Bq        -4.2842981373     1.8049659358     0.6895374830
Bq        -4.2814661727     1.4571041997    -0.0308680921
Bq        -4.2846521328     1.8484486528     0.7795881798
Bq        -4.2811121771     1.4136214827    -0.1209187890
Bq        -4.2828821550     1.6310350678     0.3293346954
Bq        -4.2830652183     1.7645691774     0.3759030113
Bq        -4.2823572271     1.6776037434     0.1958016175
Bq        -4.2834192138     1.8080518944     0.4659537082
Bq        -4.2820032315     1.6341210264     0.1057509206
Bq        -4.2837732094     1.8515346114     0.5560044050
Bq        -4.2816492360     1.5906383094     0.0157002237
Bq        -4.2841272050     1.8950173284     0.6460551019
Bq        -4.2812952404     1.5471555924    -0.0743504731
Bq        -4.2844812006     1.9385000454     0.7361057988
Bq        -4.2809412448     1.5036728754    -0.1644011700
Bq        -4.2827112227     1.7210864604     0.2858523144
Bq        -4.2828942860     1.8546205701     0.3324206302
Bq        -4.2821862948     1.7676551361     0.1523192365
Bq        -4.2832482816     1.8981032871     0.4224713271
Bq        -4.2818322993     1.7241724191     0.0622685396
Bq        -4.2836022771     1.9415860041     0.5125220240
Bq        -4.2814783037     1.6806897021    -0.0277821573
Bq        -4.2839562727     1.9850687211     0.6025727209
Bq        -4.2811243081     1.6372069851    -0.1178328542
Bq        -4.2843102683     2.0285514381     0.6926234178
Bq        -4.2807703125     1.5937242681    -0.2078835511
Bq        -4.2825402904     1.8111378531     0.2423699334
Bq        -4.2827233537     1.9446719628     0.2889382492
Bq        -4.2820153626     1.8577065288     0.1088368554
Bq        -4.2830773493     1.9881546798     0.3789889461
Bq        -4.2816613670     1.8142238118     0.0187861586
Bq        -4.2834313449     2.0316373968     0.4690396430
Bq        -4.2813073714     1.7707410947    -0.0712645383
Bq        -4.2837853404     2.0751201138     0.5590903399
Bq        -4.2809533758     1.7272583777    -0.1613152352
Bq        -4.2841393360     2.1186028308     0.6491410367
Bq        -4.2805993803     1.6837756607    -0.2513659321
Bq        -4.2823693581     1.9011892458     0.1988875523
Bq        -4.2825524214     2.0347233554     0.2454558682
Bq        -4.2818444303     1.9477579214     0.0653544744
Bq        -4.2829064170     2.0782060724     0.3355065651
Bq        -4.2814904347     1.9042752044    -0.0246962225
Bq        -4.2832604126     2.1216887894     0.4255572619
Bq        -4.2811364391     1.8607924874    -0.1147469194
Bq        -4.2836144082     2.1651715065     0.5156079588
Bq        -4.2807824436     1.8173097704    -0.2047976162
Bq        -4.2839684037     2.2086542235     0.6056586557
Bq        -4.2804284480     1.7738270534    -0.2948483131
Bq        -4.2821984259     1.9912406384     0.1554051713
Bq        -4.2823814892     2.1247747481     0.2019734871
Bq        -4.2816734980     2.0378093141     0.0218720934
Bq        -4.2827354847     2.1682574651     0.2920241840
Bq        -4.2813195024     1.9943265971    -0.0681786035
Bq        -4.2830894803     2.2117401821     0.3820748809
Bq        -4.2809655069     1.9508438801    -0.1582293004
Bq        -4.2834434759     2.2552228991     0.4721255778
Bq        -4.2806115113     1.9073611631    -0.2482799973
Bq        -4.2837974715     2.2987056161     0.5621762747
Bq        -4.2802575157     1.8638784461    -0.3383306941
Bq        -4.2820274936     2.0812920311     0.1119227903
Bq        -4.2822105569     2.2148261408     0.1584911061
Bq        -4.2815025657     2.1278607068    -0.0216102877
Bq        -4.2825645525     2.2583088578     0.2485418030
Bq        -4.2811485702     2.0843779898    -0.1116609845
Bq        -4.2829185480     2.3017915748     0.3385924999
Bq        -4.2807945746     2.0408952728    -0.2017116814
Bq        -4.2832725436     2.3452742918     0.4286431968
Bq        -4.2804405790     1.9974125558    -0.2917623783
Bq        -4.2836265392     2.3887570088     0.5186938936
Bq        -4.2800865834     1.9539298388    -0.3818130752
Bq        -4.2818565613     2.1713434238     0.0684404092
Bq        -4.2820396246     2.3048775334     0.1150087251
Bq        -4.2813316335     2.2179120994    -0.0650926687
Bq        -4.2823936202     2.3483602505     0.2050594220
Bq        -4.2809776379     2.1744293824    -0.1551433656
Bq        -4.2827476158     2.3918429675     0.2951101188
Bq        -4.2806236423     2.1309466654    -0.2451940624
Bq        -4.2831016113     2.4353256845     0.3851608157
Bq        -4.2802696467     2.0874639484    -0.3352447593
Bq        -4.2834556069     2.4788084015     0.4752115126
Bq        -4.2799156512     2.0439812314    -0.4252954562
Bq        -4.2816856290     2.2613948164     0.0249580282
Bq        -4.2818686923     2.3949289261     0.0715263440
Bq        -4.2811607012     2.3079634921    -0.1085750497
Bq        -4.2822226879     2.4384116431     0.1615770409
Bq        -4.2808067056     2.2644807751    -0.1986257466
Bq        -4.2825766835     2.4818943601     0.2516277378
Bq        -4.2804527100     2.2209980581    -0.2886764435
Bq        -4.2829306791     2.5253770771     0.3416784347
Bq        -4.2800987145     2.1775153411    -0.3787271404
Bq        -4.2832846746     2.5688597941     0.4317291316
Bq        -4.2797447189     2.1340326241    -0.4687778372
Bq        -4.2815146968     2.3514462091    -0.0185243528
Bq        -4.2816977601     2.4849803188     0.0280439630
Bq        -4.2809897689     2.3980148848    -0.1520574307
Bq        -4.2820517556     2.5284630358     0.1180946599
Bq        -4.2806357733     2.3545321678    -0.2421081276
Bq        -4.2824057512     2.5719457528     0.2081453568
Bq        -4.2802817778     2.3110494508    -0.3321588245
Bq        -4.2827597468     2.6154284698     0.2981960537
Bq        -4.2799277822     2.2675667338    -0.4222095214
Bq        -4.2831137424     2.6589111868     0.3882467505
Bq        -4.2795737866     2.2240840168    -0.5122602183
Bq        -4.2813437645     2.4414976018    -0.0620067339
Bq        -4.1902451465    -2.0175893147     2.2025561186
Bq        -4.1895371553    -2.1045547487     2.0224547248
Bq        -4.1905991420    -1.9741065977     2.2926068155
Bq        -4.1891831597    -2.1480374658     1.9324040279
Bq        -4.1909531376    -1.9306238807     2.3826575123
Bq        -4.1888291642    -2.1915201828     1.8423533311
Bq        -4.1913071332    -1.8871411637     2.4727082092
Bq        -4.1884751686    -2.2350028998     1.7523026342
Bq        -4.1916611288    -1.8436584467     2.5627589061
Bq        -4.1881211730    -2.2784856168     1.6622519373
Bq        -4.1898911509    -2.0610720317     2.1125054217
Bq        -4.1900742142    -1.9275379221     2.1590737376
Bq        -4.1893662230    -2.0145033561     1.9789723438
Bq        -4.1904282098    -1.8840552051     2.2491244344
Bq        -4.1890122275    -2.0579860731     1.8889216469
Bq        -4.1907822053    -1.8405724881     2.3391751313
Bq        -4.1886582319    -2.1014687901     1.7988709500
Bq        -4.1911362009    -1.7970897711     2.4292258282
Bq        -4.1883042363    -2.1449515071     1.7088202531
Bq        -4.1914901965    -1.7536070540     2.5192765251
Bq        -4.1879502407    -2.1884342241     1.6187695563
Bq        -4.1897202186    -1.9710206391     2.0690230407
Bq        -4.1899032819    -1.8374865294     2.1155913565
Bq        -4.1891952908    -1.9244519634     1.9354899628
Bq        -4.1902572775    -1.7940038124     2.2056420534
Bq        -4.1888412952    -1.9679346804     1.8454392659
Bq        -4.1906112731    -1.7505210954     2.2956927503
Bq        -4.1884872996    -2.0114173974     1.7553885690

1
2
3
4
5
6
7
8
9
10
11
12
13
14
15
16
17
18
19
20
21
22
23
24
25
26
27
28
29
30
31
32
33
34
35
36
37
38
39
40
41
42
43
44
45
46
47
48
49
50
51
52
53
54
55
56
57
58
59
60
61
62
63
64
65
66
67
68
69
70
71
72
73
74
75
76
77
78
79
80
81
82
83
84
85
86
87
88
89
90
91
92
93
94
95
96
97
98
99
100
101
102
103
104
105
106
107
108
109
110
111
112
113
114
115
116
117
118
119
120
121
122
123
124
125
126
127
128
129
130
131
132
133
134
135
136
137
138
139
140
141
142
143
144
145
146
147
148
149
150
151
152
153
154
155
156
157
158
159
160
161
162
163
164
165
166
167
168
169
170
171
172
173
174
175
176
177
178
179
180
181
182
183
184
185
186
187
188
189
190
191
192
193
194
195
196
197
198
199
200
201
202
203
204
205
206
207
208
209
210
211
212
213
214
215
216
217
218
219
220
221
222
223
224
225
226
227
228
229
230
231
232
233
234
235
236

