%nproc=8
%mem=1000MB
# rb3lyp/6-311+g** NMR geom=connectivity

Title

0 1
C    -4.0500558   -0.5771862    0.8136712
H    -5.0263804   -1.0082727    1.0024760
C    -3.9381552    0.6617804    0.2400876
H    -4.8252424    1.2338890   -0.0111295
C    -2.6768410    1.2433246    0.0057578
C    -1.4974121    0.5051527    0.2848253
C    -1.6508332   -0.7338728    0.9404026
H    -0.7713646   -1.2730967    1.2633753
C    -2.8898548   -1.2624035    1.1994307
H    -2.9683706   -2.2124563    1.7152676
C    -2.5773185    2.5963696   -0.4192930
H    -3.4870728    3.1412239   -0.6474055
C    -1.3741895    3.2147896   -0.4364030
H    -1.2997315    4.2742019   -0.6578144
C    -0.1719488    2.4994090   -0.1734588
C    -0.2043917    1.1018437    0.0192689
C     1.0513491    3.2042560   -0.0676222
H     1.0427344    4.2819499   -0.1896997
C     2.1942091    2.5487446    0.2579577
H     3.1168527    3.0912848    0.4334727
C     2.2216473    1.1336562    0.2934990
C     1.0486931    0.3945528    0.0302412
C     3.4483363    0.4614633    0.5573939
H     4.3095794    1.0606054    0.8334846
C     3.5427346   -0.8855926    0.4749463
H     4.4731467   -1.3939704    0.7038822
C     2.4490052   -1.6474447   -0.0196319
C     1.2150704   -1.0057258   -0.3013573
C     0.2531113   -1.7434440   -1.0216591
H    -0.6541356   -1.2535051   -1.3462847
C     0.4494193   -3.0628597   -1.3413779
H    -0.3083162   -3.5944309   -1.9054060
C     1.6251726   -3.7207967   -0.9552541
H     1.7670048   -4.7687404   -1.1927019
C     2.6109872   -3.0144177   -0.3183050
H     3.5525612   -3.4902813   -0.0646367
Bq        -0.9485014547     2.8125358704    -0.2785042593
Bq        -1.0208812199     2.8371032959     0.2156188136
Bq        -1.0346450390     2.9418959963     0.3095818235
Bq        -1.0056931329     2.9320690261     0.1119325943
Bq        -1.0491209920     2.9468094814     0.4084064380
Bq        -0.9912171799     2.9271555411     0.0131079797
Bq        -1.0635969451     2.9517229665     0.5072310526
Bq        -0.9767412268     2.9222420560    -0.0857166349
Bq        -1.0780728981     2.9566364516     0.6060556672
Bq        -0.9622652738     2.9173285709    -0.1845412495
Bq        -1.0925488512     2.9615499366     0.7048802818
Bq        -0.9477893207     2.9124150858    -0.2833658640
Bq        -1.0201690860     2.9369825112     0.2107572089
Bq        -1.0339329051     3.0417752117     0.3047202187
Bq        -1.0049809990     3.0319482415     0.1070709895
Bq        -1.0484088581     3.0466886968     0.4035448333
Bq        -0.9905050459     3.0270347564     0.0082463749
Bq        -1.0628848112     3.0516021819     0.5023694479
Bq        -0.9760290929     3.0221212714    -0.0905782396
Bq        -1.0773607642     3.0565156669     0.6011940625
Bq        -0.9615531398     3.0172077863    -0.1894028542
Bq        -1.0918367172     3.0614291520     0.7000186770
Bq        -0.9470771868     3.0122943012    -0.2882274688
Bq        -1.0194569520     3.0368617266     0.2058956041
Bq        -1.0332207711     3.1416544271     0.2998586139
Bq        -1.0042688650     3.1318274569     0.1022093848
Bq        -1.0476967242     3.1465679121     0.3986832285
Bq        -0.9897929120     3.1269139718     0.0033847702
Bq        -1.0621726772     3.1514813972     0.4975078431
Bq        -0.9753169589     3.1220004867    -0.0954398444
Bq        -1.0766486303     3.1563948823     0.5963324577
Bq        -0.9608410059     3.1170870017    -0.1942644590
Bq        -1.0911245833     3.1613083674     0.6951570723
Bq        -0.9463650529     3.1121735166    -0.2930890736
Bq        -1.0187448181     3.1367409420     0.2010339993
Bq        -1.0325086372     3.2415336424     0.2949970092
Bq        -1.0035567311     3.2317066723     0.0973477800
Bq        -1.0469845902     3.2464471275     0.3938216237
Bq        -0.9890807780     3.2267931872    -0.0014768346
Bq        -1.0614605433     3.2513606126     0.4926462383
Bq        -0.9746048250     3.2218797021    -0.1003014492
Bq        -1.0759364963     3.2562740977     0.5914708529
Bq        -0.9601288720     3.2169662170    -0.1991260638
Bq        -1.0904124494     3.2611875828     0.6902954675
Bq        -0.9456529189     3.2120527319    -0.2979506783
Bq        -1.0180326841     3.2366201574     0.1961723946
Bq        -1.0317965032     3.3414128578     0.2901354044
Bq        -1.0028445971     3.3315858877     0.0924861752
Bq        -1.0462724563     3.3463263429     0.3889600190
Bq        -0.9883686441     3.3266724026    -0.0063384394
Bq        -1.0607484093     3.3512398280     0.4877846336
Bq        -0.9738926911     3.3217589175    -0.1051630539
Bq        -1.0752243624     3.3561533131     0.5866092482
Bq        -0.9594167380     3.3168454324    -0.2039876685
Bq        -1.0897003154     3.3610667981     0.6854338627
Bq        -0.9449407850     3.3119319473    -0.3028122831
Bq        -1.0173205502     3.3364993727     0.1913107898
Bq        -1.0310843693     3.4412920732     0.2852737996
Bq        -1.0021324632     3.4314651030     0.0876245705
Bq        -1.0455603223     3.4462055583     0.3840984142
Bq        -0.9876565102     3.4265516179    -0.0112000441
Bq        -1.0600362754     3.4511190434     0.4829230288
Bq        -0.9731805571     3.4216381329    -0.1100246587
Bq        -1.0745122284     3.4560325284     0.5817476434
Bq        -0.9587046041     3.4167246478    -0.2088492733
Bq        -1.0889881815     3.4609460135     0.6805722580
Bq        -0.9442286510     3.4118111627    -0.3076738879
Bq        -1.0166084163     3.4363785881     0.1864491850
Bq        -1.0303722354     3.5411712886     0.2804121949
Bq        -1.0014203293     3.5313443184     0.0827629657
Bq        -1.0448481884     3.5460847737     0.3792368094
Bq        -0.9869443762     3.5264308333    -0.0160616489
Bq        -1.0593241414     3.5509982587     0.4780614240
Bq        -0.9724684232     3.5215173482    -0.1148862635
Bq        -1.0738000945     3.5559117438     0.5768860386
Bq        -0.9579924701     3.5166038632    -0.2137108781
Bq        -1.0882760475     3.5608252289     0.6757106532
Bq        -0.9435165171     3.5116903781    -0.3125354926
Bq        -1.0158962823     3.5362578035     0.1815875803
Bq        -1.0296601014     3.6410505039     0.2755505901
Bq        -1.0007081953     3.6312235338     0.0779013609
Bq        -1.0441360545     3.6459639890     0.3743752047
Bq        -0.9862322423     3.6263100487    -0.0209232537
Bq        -1.0586120075     3.6508774741     0.4731998193
Bq        -0.9717562892     3.6213965636    -0.1197478682
Bq        -1.0730879605     3.6557909592     0.5720244339
Bq        -0.9572803362     3.6164830785    -0.2185724828
Bq        -1.0875639136     3.6607044443     0.6708490484
Bq        -0.9428043831     3.6115695935    -0.3173970974
Bq        -1.0151841484     3.6361370189     0.1767259755
Bq        -1.0289479675     3.7409297193     0.2706889853
Bq        -0.9999960614     3.7311027492     0.0730397562
Bq        -1.0434239205     3.7458432044     0.3695135999
Bq        -0.9855201083     3.7261892641    -0.0257848584
Bq        -1.0578998736     3.7507566895     0.4683382145
Bq        -0.9710441553     3.7212757790    -0.1246094730
Bq        -1.0723758266     3.7556701746     0.5671628291
Bq        -0.9565682023     3.7163622939    -0.2234340876
Bq        -1.0868517796     3.7605836597     0.6659874437
Bq        -0.9420922492     3.7114488088    -0.3222587022
Bq        -1.0144720144     3.7360162342     0.1718643707
Bq        -1.0282358335     3.8408089347     0.2658273806
Bq        -0.9992839274     3.8309819645     0.0681781514
Bq        -1.0427117866     3.8457224198     0.3646519952
Bq        -0.9848079744     3.8260684795    -0.0306464632
Bq        -1.0571877396     3.8506359049     0.4634766097
Bq        -0.9703320214     3.8211549944    -0.1294710778
Bq        -1.0716636927     3.8555493900     0.5623012243
Bq        -0.9558560683     3.8162415093    -0.2282956924
Bq        -1.0861396457     3.8604628750     0.6611258389
Bq        -0.9413801153     3.8113280242    -0.3271203069
Bq        -1.0137598805     3.8358954496     0.1670027660
Bq        -1.0275236996     3.9406881501     0.2609657758
Bq        -0.9985717935     3.9308611799     0.0633165466
Bq        -1.0419996526     3.9456016352     0.3597903904
Bq        -0.9840958405     3.9259476948    -0.0355080680
Bq        -1.0564756057     3.9505151202     0.4586150050
Bq        -0.9696198874     3.9210342098    -0.1343326825
Bq        -1.0709515587     3.9554286053     0.5574396196
Bq        -0.9551439344     3.9161207247    -0.2331572971
Bq        -1.0854275118     3.9603420904     0.6562642341
Bq        -0.9406679813     3.9112072396    -0.3319819117
Bq        -1.0130477465     3.9357746650     0.1621411612
Bq        -1.0268115656     4.0405673655     0.2561041710
Bq        -0.9978596596     4.0307403953     0.0584549419
Bq        -1.0412875187     4.0454808505     0.3549287856
Bq        -0.9833837065     4.0258269102    -0.0403696727
Bq        -1.0557634717     4.0503943356     0.4537534002
Bq        -0.9689077535     4.0209134251    -0.1391942873
Bq        -1.0702394248     4.0553078207     0.5525780148
Bq        -0.9544318004     4.0159999400    -0.2380189019
Bq        -1.0847153778     4.0602213058     0.6514026294
Bq        -0.9399558474     4.0110864550    -0.3368435165
Bq        -1.0123356126     4.0356538804     0.1572795564
Bq        -1.0260994317     4.1404465808     0.2512425663
Bq        -0.9971475256     4.1306196107     0.0535933371
Bq        -1.0405753847     4.1453600659     0.3500671809
Bq        -0.9826715726     4.1257061256    -0.0452312775
Bq        -1.0550513378     4.1502735510     0.4488917954
Bq        -0.9681956195     4.1207926405    -0.1440558921
Bq        -1.0695272908     4.1551870361     0.5477164100
Bq        -0.9537196665     4.1158791554    -0.2428805067
Bq        -1.0840032439     4.1601005212     0.6465410246
Bq        -0.9392437134     4.1109656703    -0.3417051212
Bq        -1.0116234787     4.1355330958     0.1524179517
Bq        -1.0253872978     4.2403257962     0.2463809615
Bq        -0.9964353917     4.2304988260     0.0487317323
Bq        -1.0398632508     4.2452392813     0.3452055761
Bq        -0.9819594386     4.2255853410    -0.0500928823
Bq        -1.0543392039     4.2501527664     0.4440301907
Bq        -0.9674834856     4.2206718559    -0.1489174968
Bq        -1.0688151569     4.2550662515     0.5428548053
Bq        -0.9530075325     4.2157583708    -0.2477421114
Bq        -1.0832911099     4.2599797365     0.6416794198
Bq        -0.9385315795     4.2108448857    -0.3465667260
Bq        -1.0109113447     4.2354123111     0.1475563469
Bq        -1.0246751638     4.3402050116     0.2415193567
Bq        -0.9957232577     4.3303780414     0.0438701276
Bq        -1.0391511169     4.3451184967     0.3403439713
Bq        -0.9812473047     4.3254645563    -0.0549544870
Bq        -1.0536270699     4.3500319818     0.4391685859
Bq        -0.9667713516     4.3205510713    -0.1537791016
Bq        -1.0681030230     4.3549454668     0.5379932005
Bq        -0.9522953986     4.3156375862    -0.2526037162
Bq        -1.0825789760     4.3598589519     0.6368178151
Bq        -0.9378194456     4.3107241011    -0.3514283308
Bq        -1.0101992108     4.3352915265     0.1426947421
Bq        -0.9613377370    -0.6537557573     0.4990930540
Bq        -0.9323858309    -0.6635827274     0.3014438248
Bq        -0.9758136901    -0.6488422722     0.5979176686
Bq        -0.9179098779    -0.6684962125     0.2026192102
Bq        -0.9902896431    -0.6439287871     0.6967422831
Bq        -0.9034339249    -0.6734096976     0.1037945956
Bq        -1.0047655962    -0.6390153020     0.7955668977
Bq        -0.8889579718    -0.6783231827     0.0049699810
Bq        -1.0192415492    -0.6341018169     0.8943915123
Bq        -0.8744820188    -0.6832366678    -0.0938546335
Bq        -0.9468617840    -0.6586692423     0.4002684394
Bq        -0.9606256031    -0.5538765419     0.4942314492
Bq        -0.9316736970    -0.5637035121     0.2965822200
Bq        -0.9751015561    -0.5489630568     0.5930560638
Bq        -0.9171977440    -0.5686169971     0.1977576055
Bq        -0.9895775092    -0.5440495717     0.6918806784
Bq        -0.9027217909    -0.5735304822     0.0989329909
Bq        -1.0040534622    -0.5391360866     0.7907052930
Bq        -0.8882458379    -0.5784439673     0.0001083763
Bq        -1.0185294153    -0.5342226016     0.8895299075
Bq        -0.8737698848    -0.5833574524    -0.0987162383
Bq        -0.9461496500    -0.5587900270     0.3954068346
Bq        -0.9599134692    -0.4539973265     0.4893698444
Bq        -0.9309615631    -0.4638242967     0.2917206153
Bq        -0.9743894222    -0.4490838414     0.5881944590
Bq        -0.9164856100    -0.4687377818     0.1928960007
Bq        -0.9888653752    -0.4441703563     0.6870190736
Bq        -0.9020096570    -0.4736512668     0.0940713861
Bq        -1.0033413283    -0.4392568713     0.7858436882
Bq        -0.8875337039    -0.4785647519    -0.0047532285
Bq        -1.0178172813    -0.4343433862     0.8846683028
Bq        -0.8730577509    -0.4834782370    -0.1035778431
Bq        -0.9454375161    -0.4589108116     0.3905452299

1
2
3
4
5
6
7
8
9
10
11
12
13
14
15
16
17
18
19
20
21
22
23
24
25
26
27
28
29
30
31
32
33
34
35
36
37
38
39
40
41
42
43
44
45
46
47
48
49
50
51
52
53
54
55
56
57
58
59
60
61
62
63
64
65
66
67
68
69
70
71
72
73
74
75
76
77
78
79
80
81
82
83
84
85
86
87
88
89
90
91
92
93
94
95
96
97
98
99
100
101
102
103
104
105
106
107
108
109
110
111
112
113
114
115
116
117
118
119
120
121
122
123
124
125
126
127
128
129
130
131
132
133
134
135
136
137
138
139
140
141
142
143
144
145
146
147
148
149
150
151
152
153
154
155
156
157
158
159
160
161
162
163
164
165
166
167
168
169
170
171
172
173
174
175
176
177
178
179
180
181
182
183
184
185
186
187
188
189
190
191
192
193
194
195
196
197
198
199
200
201
202
203
204
205
206
207
208
209
210
211
212
213
214
215
216
217
218
219
220
221
222
223
224
225
226
227
228
229
230
231
232
233
234
235
236

