%nproc=8
%mem=1000MB
# rb3lyp/6-311+g** NMR geom=connectivity

Title

0 1
C    -4.0500558   -0.5771862    0.8136712
H    -5.0263804   -1.0082727    1.0024760
C    -3.9381552    0.6617804    0.2400876
H    -4.8252424    1.2338890   -0.0111295
C    -2.6768410    1.2433246    0.0057578
C    -1.4974121    0.5051527    0.2848253
C    -1.6508332   -0.7338728    0.9404026
H    -0.7713646   -1.2730967    1.2633753
C    -2.8898548   -1.2624035    1.1994307
H    -2.9683706   -2.2124563    1.7152676
C    -2.5773185    2.5963696   -0.4192930
H    -3.4870728    3.1412239   -0.6474055
C    -1.3741895    3.2147896   -0.4364030
H    -1.2997315    4.2742019   -0.6578144
C    -0.1719488    2.4994090   -0.1734588
C    -0.2043917    1.1018437    0.0192689
C     1.0513491    3.2042560   -0.0676222
H     1.0427344    4.2819499   -0.1896997
C     2.1942091    2.5487446    0.2579577
H     3.1168527    3.0912848    0.4334727
C     2.2216473    1.1336562    0.2934990
C     1.0486931    0.3945528    0.0302412
C     3.4483363    0.4614633    0.5573939
H     4.3095794    1.0606054    0.8334846
C     3.5427346   -0.8855926    0.4749463
H     4.4731467   -1.3939704    0.7038822
C     2.4490052   -1.6474447   -0.0196319
C     1.2150704   -1.0057258   -0.3013573
C     0.2531113   -1.7434440   -1.0216591
H    -0.6541356   -1.2535051   -1.3462847
C     0.4494193   -3.0628597   -1.3413779
H    -0.3083162   -3.5944309   -1.9054060
C     1.6251726   -3.7207967   -0.9552541
H     1.7670048   -4.7687404   -1.1927019
C     2.6109872   -3.0144177   -0.3183050
H     3.5525612   -3.4902813   -0.0646367
Bq        -1.6718198321     0.4576642308     1.2578368534
Bq        -1.6334000188     0.2121710570     0.2892001725
Bq        -1.6526099255     0.3349176439     0.7735185130
Bq        -1.6554789526     0.4564067932     0.8458521516
Bq        -1.6477949899     0.4073081585     0.6521248155
Bq        -1.6593209339     0.4809561106     0.9427158197
Bq        -1.6439530086     0.3827588411     0.5552611474
Bq        -1.6631629152     0.5055054280     1.0395794878
Bq        -1.6401110272     0.3582095237     0.4583974793
Bq        -1.6670048966     0.5300547454     1.1364431559
Bq        -1.6362690459     0.3336602064     0.3615338112
Bq        -1.6708468779     0.5546040627     1.2333068240
Bq        -1.6324270646     0.3091108890     0.2646701431
Bq        -1.6516369712     0.4318574759     0.7489884836
Bq        -1.6545059983     0.5533466252     0.8213221222
Bq        -1.6468220357     0.5042479904     0.6275947860
Bq        -1.6583479797     0.5778959425     0.9181857903
Bq        -1.6429800544     0.4796986730     0.5307311179
Bq        -1.6621899610     0.6024452599     1.0150494584
Bq        -1.6391380730     0.4551493557     0.4338674499
Bq        -1.6660319423     0.6269945773     1.1119131265
Bq        -1.6352960917     0.4306000383     0.3370037818
Bq        -1.6698739237     0.6515438947     1.2087767946
Bq        -1.6314541104     0.4060507209     0.2401401137
Bq        -1.6506640170     0.5287973078     0.7244584541
Bq        -1.6535330441     0.6502864571     0.7967920928
Bq        -1.6458490815     0.6011878224     0.6030647566
Bq        -1.6573750254     0.6748357745     0.8936557609
Bq        -1.6420071001     0.5766385050     0.5062010885
Bq        -1.6612170068     0.6993850919     0.9905194290
Bq        -1.6381651188     0.5520891876     0.4093374204
Bq        -1.6650589881     0.7239344092     1.0873830971
Bq        -1.6343231375     0.5275398702     0.3124737523
Bq        -1.6689009694     0.7484837266     1.1842467652
Bq        -1.6304811561     0.5029905529     0.2156100843
Bq        -1.6496910628     0.6257371397     0.6999284247
Bq        -1.6525600899     0.7472262890     0.7722620634
Bq        -1.6448761272     0.6981276543     0.5785347272
Bq        -1.6564020712     0.7717756064     0.8691257315
Bq        -1.6410341459     0.6735783369     0.4816710591
Bq        -1.6602440525     0.7963249238     0.9659893995
Bq        -1.6371921646     0.6490290195     0.3848073910
Bq        -1.6640860339     0.8208742412     1.0628530676
Bq        -1.6333501832     0.6244797022     0.2879437229
Bq        -1.6679280152     0.8454235585     1.1597167357
Bq        -1.6295082019     0.5999303848     0.1910800548
Bq        -1.6487181086     0.7226769717     0.6753983953
Bq        -1.6515871357     0.8441661210     0.7477320339
Bq        -1.6439031730     0.7950674862     0.5540046978
Bq        -1.6554291170     0.8687154384     0.8445957020
Bq        -1.6400611917     0.7705181689     0.4571410297
Bq        -1.6592710983     0.8932647557     0.9414593701
Bq        -1.6362192104     0.7459688515     0.3602773616
Bq        -1.6631130797     0.9178140731     1.0383230382
Bq        -1.6323772290     0.7214195341     0.2634136935
Bq        -1.6669550610     0.9423633905     1.1351867063
Bq        -1.6285352477     0.6968702167     0.1665500254
Bq        -1.6477451543     0.8196168036     0.6508683658
Bq        -1.6506141814     0.9411059529     0.7232020045
Bq        -1.6429302188     0.8920073182     0.5294746683
Bq        -1.6544561628     0.9656552703     0.8200656726
Bq        -1.6390882375     0.8674580008     0.4326110002
Bq        -1.6582981441     0.9902045877     0.9169293407
Bq        -1.6352462561     0.8429086834     0.3357473322
Bq        -1.6621401254     1.0147539051     1.0137930088
Bq        -1.6314042748     0.8183593660     0.2388836641
Bq        -1.6659821068     1.0393032224     1.1106566769
Bq        -1.6275622935     0.7938100487     0.1420199960
Bq        -1.6467722001     0.9165566355     0.6263383364
Bq        -1.6496412272     1.0380457849     0.6986719751
Bq        -1.6419572646     0.9889471501     0.5049446389
Bq        -1.6534832085     1.0625951022     0.7955356432
Bq        -1.6381152832     0.9643978327     0.4080809708
Bq        -1.6573251899     1.0871444196     0.8923993113
Bq        -1.6342733019     0.9398485154     0.3112173027
Bq        -1.6611671712     1.1116937370     0.9892629794
Bq        -1.6304313206     0.9152991980     0.2143536346
Bq        -1.6650091525     1.1362430544     1.0861266474
Bq        -1.6265893392     0.8907498806     0.1174899665
Bq        -1.6457992459     1.0134964675     0.6018083070
Bq        -1.6486682730     1.1349856168     0.6741419457
Bq        -1.6409843103     1.0858869821     0.4804146095
Bq        -1.6525102543     1.1595349342     0.7710056137
Bq        -1.6371423290     1.0613376647     0.3835509414
Bq        -1.6563522357     1.1840842516     0.8678692818
Bq        -1.6333003477     1.0367883473     0.2866872733
Bq        -1.6601942170     1.2086335689     0.9647329499
Bq        -1.6294583663     1.0122390299     0.1898236052
Bq        -1.6640361983     1.2331828863     1.0615966180
Bq        -1.6256163850     0.9876897125     0.0929599371
Bq        -1.6448262917     1.1104362994     0.5772782776
Bq        -1.6476953188     1.2319254487     0.6496119162
Bq        -1.6400113561     1.1828268140     0.4558845800
Bq        -1.6515373001     1.2564747661     0.7464755843
Bq        -1.6361693748     1.1582774966     0.3590209120
Bq        -1.6553792814     1.2810240835     0.8433392524
Bq        -1.6323273935     1.1337281792     0.2621572439
Bq        -1.6592212628     1.3055734009     0.9402029205
Bq        -1.6284854121     1.1091788619     0.1652935758
Bq        -1.6630632441     1.3301227182     1.0370665886
Bq        -1.6246434308     1.0846295445     0.0684299077
Bq        -1.6438533374     1.2073761314     0.5527482481
Bq        -1.6467223645     1.3288652807     0.6250818868
Bq        -1.6390384019     1.2797666459     0.4313545506
Bq        -1.6505643459     1.3534145981     0.7219455549
Bq        -1.6351964206     1.2552173286     0.3344908825
Bq        -1.6544063272     1.3779639154     0.8188092230
Bq        -1.6313544392     1.2306680112     0.2376272144
Bq        -1.6582483085     1.4025132328     0.9156728911
Bq        -1.6275124579     1.2061186938     0.1407635464
Bq        -1.6620902899     1.4270625502     1.0125365592
Bq        -1.6236704766     1.1815693764     0.0438998783
Bq        -1.6428803832     1.3043159633     0.5282182187
Bq        -1.6457494103     1.4258051126     0.6005518574
Bq        -1.6380654477     1.3767064779     0.4068245212
Bq        -1.6495913916     1.4503544300     0.6974155255
Bq        -1.6342234663     1.3521571605     0.3099608531
Bq        -1.6534333730     1.4749037474     0.7942791936
Bq        -1.6303814850     1.3276078431     0.2130971850
Bq        -1.6572753543     1.4994530647     0.8911428616
Bq        -1.6265395037     1.3030585257     0.1162335169
Bq        -1.6611173356     1.5240023821     0.9880065297
Bq        -1.6226975223     1.2785092084     0.0193698488
Bq        -1.6419074290     1.4012557952     0.5036881893
Bq        -1.6447764561     1.5227449446     0.5760218279
Bq        -1.6370924934     1.4736463098     0.3822944918
Bq        -1.6486184374     1.5472942619     0.6728854960
Bq        -1.6332505121     1.4490969924     0.2854308237
Bq        -1.6524604188     1.5718435793     0.7697491641
Bq        -1.6294085308     1.4245476751     0.1885671556
Bq        -1.6563024001     1.5963928967     0.8666128322
Bq        -1.6255665495     1.3999983577     0.0917034875
Bq        -1.6601443814     1.6209422141     0.9634765003
Bq        -1.6217245681     1.3754490403    -0.0051601806
Bq        -1.6409344748     1.4981956272     0.4791581599
Bq        -1.6438035019     1.6196847765     0.5514917985
Bq        -1.6361195392     1.5705861417     0.3577644623
Bq        -1.6476454832     1.6442340939     0.6483554666
Bq        -1.6322775579     1.5460368244     0.2609007943
Bq        -1.6514874645     1.6687834113     0.7452191347
Bq        -1.6284355766     1.5214875070     0.1640371262
Bq        -1.6553294459     1.6933327286     0.8420828028
Bq        -1.6245935952     1.4969381896     0.0671734581
Bq        -1.6591714272     1.7178820460     0.9389464709
Bq        -1.6207516139     1.4723888722    -0.0296902100
Bq        -1.6399615205     1.5951354591     0.4546281304
Bq        -1.6428305476     1.7166246084     0.5269617691
Bq        -1.6351465850     1.6675259737     0.3332344329
Bq        -1.6466725290     1.7411739258     0.6238254372
Bq        -1.6313046037     1.6429766563     0.2363707648
Bq        -1.6505145103     1.7657232432     0.7206891053
Bq        -1.6274626223     1.6184273389     0.1395070967
Bq        -1.6543564916     1.7902725606     0.8175527734
Bq        -1.6236206410     1.5938780216     0.0426434286
Bq        -1.6581984730     1.8148218779     0.9144164415
Bq        -1.6197786597     1.5693287042    -0.0542202394
Bq        -1.6389885663     1.6920752911     0.4300981010
Bq        -1.6418575934     1.8135644404     0.5024317397
Bq        -1.6341736308     1.7644658056     0.3087044035
Bq        -1.6456995748     1.8381137578     0.5992954078
Bq        -1.6303316494     1.7399164882     0.2118407354
Bq        -1.6495415561     1.8626630751     0.6961590758
Bq        -1.6264896681     1.7153671709     0.1149770673
Bq        -1.6533835374     1.8872123925     0.7930227439
Bq        -1.6226476868     1.6908178535     0.0181133992
Bq        -1.6572255187     1.9117617099     0.8898864120
Bq        -1.6188057054     1.6662685361    -0.0787502689
Bq        -1.6380156121     1.7890151230     0.4055680716
Bq        -1.6408846392     1.9105042723     0.4779017102
Bq        -1.6332006765     1.8614056376     0.2841743741
Bq        -1.6447266205     1.9350535897     0.5747653783
Bq        -1.6293586952     1.8368563202     0.1873107060
Bq        -1.6485686019     1.9596029071     0.6716290464
Bq        -1.6255167139     1.8123070028     0.0904470379
Bq        -1.6524105832     1.9841522244     0.7684927145
Bq        -1.6216747326     1.7877576854    -0.0064166302
Bq        -1.6562525645     2.0087015418     0.8653563826
Bq        -1.6178327512     1.7632083681    -0.1032802983
Bq        -1.6370426579     1.8859549549     0.3810380421
Bq        -1.6399116850     2.0074441043     0.4533716808
Bq        -1.6322277223     1.9583454695     0.2596443446
Bq        -1.6437536663     2.0319934216     0.5502353489
Bq        -1.6283857410     1.9337961521     0.1627806765
Bq        -1.6475956476     2.0565427390     0.6470990170
Bq        -1.6245437597     1.9092468348     0.0659170085
Bq        -1.6514376290     2.0810920564     0.7439626851
Bq        -1.6207017783     1.8846975174    -0.0309466596
Bq        -1.6552796103     2.1056413738     0.8408263532
Bq        -1.6168597970     1.8601482000    -0.1278103277
Bq        -1.6360697036     1.9828947869     0.3565080127
Bq        -1.6389387307     2.1043839362     0.4288416514
Bq        -1.6312547681     2.0552853014     0.2351143152
Bq        -1.6427807121     2.1289332536     0.5257053195
Bq        -1.6274127868     2.0307359841     0.1382506471
Bq        -1.6466226934     2.1534825709     0.6225689876
Bq        -1.6235708054     2.0061866667     0.0413869790
Bq        -1.6504646747     2.1780318883     0.7194326557
Bq        -1.6197288241     1.9816373493    -0.0554766891
Bq        -1.6543066561     2.2025812057     0.8162963237
Bq        -1.6158868428     1.9570880319    -0.1523403572

1
2
3
4
5
6
7
8
9
10
11
12
13
14
15
16
17
18
19
20
21
22
23
24
25
26
27
28
29
30
31
32
33
34
35
36
37
38
39
40
41
42
43
44
45
46
47
48
49
50
51
52
53
54
55
56
57
58
59
60
61
62
63
64
65
66
67
68
69
70
71
72
73
74
75
76
77
78
79
80
81
82
83
84
85
86
87
88
89
90
91
92
93
94
95
96
97
98
99
100
101
102
103
104
105
106
107
108
109
110
111
112
113
114
115
116
117
118
119
120
121
122
123
124
125
126
127
128
129
130
131
132
133
134
135
136
137
138
139
140
141
142
143
144
145
146
147
148
149
150
151
152
153
154
155
156
157
158
159
160
161
162
163
164
165
166
167
168
169
170
171
172
173
174
175
176
177
178
179
180
181
182
183
184
185
186
187
188
189
190
191
192
193
194
195
196
197
198
199
200
201
202
203
204
205
206
207
208
209
210
211
212
213
214
215
216
217
218
219
220
221
222
223
224
225
226
227
228
229
230
231
232
233
234
235
236

