%nproc=8
%mem=1000MB
# rb3lyp/6-311+g** NMR geom=connectivity

Title

0 1
C    -4.0500558   -0.5771862    0.8136712
H    -5.0263804   -1.0082727    1.0024760
C    -3.9381552    0.6617804    0.2400876
H    -4.8252424    1.2338890   -0.0111295
C    -2.6768410    1.2433246    0.0057578
C    -1.4974121    0.5051527    0.2848253
C    -1.6508332   -0.7338728    0.9404026
H    -0.7713646   -1.2730967    1.2633753
C    -2.8898548   -1.2624035    1.1994307
H    -2.9683706   -2.2124563    1.7152676
C    -2.5773185    2.5963696   -0.4192930
H    -3.4870728    3.1412239   -0.6474055
C    -1.3741895    3.2147896   -0.4364030
H    -1.2997315    4.2742019   -0.6578144
C    -0.1719488    2.4994090   -0.1734588
C    -0.2043917    1.1018437    0.0192689
C     1.0513491    3.2042560   -0.0676222
H     1.0427344    4.2819499   -0.1896997
C     2.1942091    2.5487446    0.2579577
H     3.1168527    3.0912848    0.4334727
C     2.2216473    1.1336562    0.2934990
C     1.0486931    0.3945528    0.0302412
C     3.4483363    0.4614633    0.5573939
H     4.3095794    1.0606054    0.8334846
C     3.5427346   -0.8855926    0.4749463
H     4.4731467   -1.3939704    0.7038822
C     2.4490052   -1.6474447   -0.0196319
C     1.2150704   -1.0057258   -0.3013573
C     0.2531113   -1.7434440   -1.0216591
H    -0.6541356   -1.2535051   -1.3462847
C     0.4494193   -3.0628597   -1.3413779
H    -0.3083162   -3.5944309   -1.9054060
C     1.6251726   -3.7207967   -0.9552541
H     1.7670048   -4.7687404   -1.1927019
C     2.6109872   -3.0144177   -0.3183050
H     3.5525612   -3.4902813   -0.0646367
Bq        -5.1883086408    -1.9213660047     1.7079751485
Bq        -5.1907866098    -1.6169869857     2.3383300267
Bq        -5.1879546452    -1.9648487217     1.6179244517
Bq        -5.1911406054    -1.5735042687     2.4283807236
Bq        -5.1876006496    -2.0083314388     1.5278737548
Bq        -5.1893706275    -1.7909178537     1.9781272392
Bq        -5.1895536908    -1.6573837441     2.0246955550
Bq        -5.1888456996    -1.7443491781     1.8445941613
Bq        -5.1899076864    -1.6139010270     2.1147462519
Bq        -5.1884917041    -1.7878318951     1.7545434644
Bq        -5.1902616819    -1.5704183100     2.2047969488
Bq        -5.1881377085    -1.8313146121     1.6644927675
Bq        -5.1906156775    -1.5269355930     2.2948476457
Bq        -5.1877837129    -1.8747973291     1.5744420706
Bq        -5.1909696731    -1.4834528760     2.3848983426
Bq        -5.1874297173    -1.9182800461     1.4843913737
Bq        -5.1891996952    -1.7008664611     1.9346448581
Bq        -5.1893827585    -1.5673323514     1.9812131740
Bq        -5.1886747674    -1.6542977854     1.8011117802
Bq        -5.1897367541    -1.5238496344     2.0712638709
Bq        -5.1883207718    -1.6977805024     1.7110610834
Bq        -5.1900907497    -1.4803669174     2.1613145678
Bq        -5.1879667762    -1.7412632194     1.6210103865
Bq        -5.1904447452    -1.4368842004     2.2513652646
Bq        -5.1876127806    -1.7847459364     1.5309596896
Bq        -5.1907987408    -1.3934014834     2.3414159615
Bq        -5.1872587851    -1.8282286534     1.4409089927
Bq        -5.1890287629    -1.6108150684     1.8911624771
Bq        -5.1892118262    -1.4772809587     1.9377307930
Bq        -5.1885038351    -1.5642463927     1.7576293992
Bq        -5.1895658218    -1.4337982417     2.0277814898
Bq        -5.1881498395    -1.6077291097     1.6675787023
Bq        -5.1899198174    -1.3903155247     2.1178321867
Bq        -5.1877958439    -1.6512118267     1.5775280054
Bq        -5.1902738130    -1.3468328077     2.2078828836
Bq        -5.1874418484    -1.6946945437     1.4874773086
Bq        -5.1906278085    -1.3033500907     2.2979335805
Bq        -5.1870878528    -1.7381772607     1.3974266117
Bq        -5.1888578307    -1.5207636757     1.8476800961
Bq        -5.1890408940    -1.3872295660     1.8942484119
Bq        -5.1883329028    -1.4741950001     1.7141470182
Bq        -5.1893948895    -1.3437468490     1.9842991088
Bq        -5.1879789072    -1.5176777171     1.6240963213
Bq        -5.1897488851    -1.3002641320     2.0743498057
Bq        -5.1876249117    -1.5611604341     1.5340456244
Bq        -5.1901028807    -1.2567814150     2.1644005026
Bq        -5.1872709161    -1.6046431511     1.4439949275
Bq        -5.1904568763    -1.2132986980     2.2544511995
Bq        -5.1869169205    -1.6481258681     1.3539442306
Bq        -5.1886868984    -1.4307122830     1.8041977151
Bq        -5.1888699617    -1.2971781734     1.8507660309
Bq        -5.1881619705    -1.3841436074     1.6706646371
Bq        -5.1892239573    -1.2536954564     1.9408167278
Bq        -5.1878079750    -1.4276263244     1.5806139403
Bq        -5.1895779528    -1.2102127394     2.0308674247
Bq        -5.1874539794    -1.4711090414     1.4905632434
Bq        -5.1899319484    -1.1667300224     2.1209181215
Bq        -5.1870999838    -1.5145917584     1.4005125465
Bq        -5.1902859440    -1.1232473054     2.2109688184
Bq        -5.1867459882    -1.5580744754     1.3104618496
Bq        -5.1885159661    -1.3406608904     1.7607153340
Bq        -5.1886990294    -1.2071267807     1.8072836499
Bq        -5.1879910383    -1.2940922147     1.6271822561
Bq        -5.1890530250    -1.1636440637     1.8973343468
Bq        -5.1876370427    -1.3375749317     1.5371315592
Bq        -5.1894070206    -1.1201613467     1.9873850436
Bq        -5.1872830471    -1.3810576487     1.4470808623
Bq        -5.1897610161    -1.0766786297     2.0774357405
Bq        -5.1869290515    -1.4245403657     1.3570301655
Bq        -5.1901150117    -1.0331959127     2.1674864374
Bq        -5.1865750560    -1.4680230827     1.2669794686
Bq        -5.1883450338    -1.2506094977     1.7172329530
Bq        -5.1885280971    -1.1170753880     1.7638012688
Bq        -5.1878201060    -1.2040408220     1.5836998751
Bq        -5.1888820927    -1.0735926710     1.8538519657
Bq        -5.1874661104    -1.2475235390     1.4936491782
Bq        -5.1892360883    -1.0301099540     1.9439026626
Bq        -5.1871121148    -1.2910062560     1.4035984813
Bq        -5.1895900839    -0.9866272370     2.0339533595
Bq        -5.1867581193    -1.3344889731     1.3135477844
Bq        -5.1899440794    -0.9431445200     2.1240040564
Bq        -5.1864041237    -1.3779716901     1.2234970875
Bq        -5.1881741016    -1.1605581050     1.6737505720
Bq        -5.1883571649    -1.0270239954     1.7203188878
Bq        -5.1876491737    -1.1139894294     1.5402174940
Bq        -5.1887111604    -0.9835412784     1.8103695847
Bq        -5.1872951781    -1.1574721464     1.4501667972
Bq        -5.1890651560    -0.9400585614     1.9004202816
Bq        -5.1869411826    -1.2009548634     1.3601161003
Bq        -5.1894191516    -0.8965758443     1.9904709785
Bq        -5.1865871870    -1.2444375804     1.2700654034
Bq        -5.1897731472    -0.8530931273     2.0805216753
Bq        -5.1862331914    -1.2879202974     1.1800147065
Bq        -5.1880031693    -1.0705067124     1.6302681909
Bq        -5.1881862326    -0.9369726027     1.6768365068
Bq        -5.1874782414    -1.0239380367     1.4967351130
Bq        -5.1885402282    -0.8934898857     1.7668872037
Bq        -5.1871242459    -1.0674207537     1.4066844161
Bq        -5.1888942237    -0.8500071687     1.8569379005
Bq        -5.1867702503    -1.1109034707     1.3166337192
Bq        -5.1892482193    -0.8065244517     1.9469885974
Bq        -5.1864162547    -1.1543861877     1.2265830224
Bq        -5.1896022149    -0.7630417347     2.0370392943
Bq        -5.1860622591    -1.1978689047     1.1365323255
Bq        -5.1878322370    -0.9804553197     1.5867858099
Bq        -5.1880153003    -0.8469212100     1.6333541257
Bq        -5.1873073092    -0.9338866440     1.4532527320
Bq        -5.1883692959    -0.8034384930     1.7234048226
Bq        -5.1869533136    -0.9773693610     1.3632020351
Bq        -5.1887232915    -0.7599557760     1.8134555195
Bq        -5.1865993180    -1.0208520780     1.2731513382
Bq        -5.1890772870    -0.7164730590     1.9035062164
Bq        -5.1862453224    -1.0643347950     1.1831006413
Bq        -5.1894312826    -0.6729903420     1.9935569133
Bq        -5.1858913269    -1.1078175120     1.0930499444
Bq        -5.1876613047    -0.8904039270     1.5433034289
Bq        -5.1878443680    -0.7568698173     1.5898717447
Bq        -5.1871363769    -0.8438352514     1.4097703509
Bq        -5.1881983636    -0.7133871003     1.6799224416
Bq        -5.1867823813    -0.8873179684     1.3197196541
Bq        -5.1885523592    -0.6699043833     1.7699731385
Bq        -5.1864283857    -0.9308006854     1.2296689572
Bq        -5.1889063548    -0.6264216663     1.8600238354
Bq        -5.1860743902    -0.9742834024     1.1396182603
Bq        -5.1892603503    -0.5829389493     1.9500745322
Bq        -5.1857203946    -1.0177661194     1.0495675634
Bq        -5.1874903725    -0.8003525344     1.4998210478
Bq        -5.1876734358    -0.6668184247     1.5463893637
Bq        -5.1869654446    -0.7537838587     1.3662879699
Bq        -5.1880274313    -0.6233357077     1.6364400606
Bq        -5.1866114490    -0.7972665757     1.2762372730
Bq        -5.1883814269    -0.5798529907     1.7264907574
Bq        -5.1862574535    -0.8407492927     1.1861865761
Bq        -5.1887354225    -0.5363702737     1.8165414543
Bq        -5.1859034579    -0.8842320097     1.0961358793
Bq        -5.1890894181    -0.4928875567     1.9065921512
Bq        -5.1855494623    -0.9277147267     1.0060851824
Bq        -5.1873194402    -0.7103011417     1.4563386668
Bq        -5.1875025035    -0.5767670320     1.5029069826
Bq        -5.1867945123    -0.6637324660     1.3228055889
Bq        -5.1878564991    -0.5332843150     1.5929576795
Bq        -5.1864405168    -0.7072151830     1.2327548920
Bq        -5.1882104946    -0.4898015980     1.6830083764
Bq        -5.1860865212    -0.7506979000     1.1427041951
Bq        -5.1885644902    -0.4463188810     1.7730590733
Bq        -5.1857325256    -0.7941806170     1.0526534982
Bq        -5.1889184858    -0.4028361640     1.8631097702
Bq        -5.1853785300    -0.8376633340     0.9626028013
Bq        -5.1871485079    -0.6202497490     1.4128562858
Bq        -5.1873315712    -0.4867156393     1.4594246016
Bq        -5.1866235801    -0.5736810733     1.2793232078
Bq        -5.1876855668    -0.4432329223     1.5494752985
Bq        -5.1862695845    -0.6171637904     1.1892725110
Bq        -5.1880395624    -0.3997502053     1.6395259954
Bq        -5.1859155889    -0.6606465074     1.0992218141
Bq        -5.1883935579    -0.3562674883     1.7295766923
Bq        -5.1855615933    -0.7041292244     1.0091711172
Bq        -5.1887475535    -0.3127847713     1.8196273891
Bq        -5.1852075978    -0.7476119414     0.9191204203
Bq        -5.1869775756    -0.5301983563     1.3693739047
Bq        -5.1871606389    -0.3966642467     1.4159422206
Bq        -5.1864526478    -0.4836296807     1.2358408268
Bq        -5.1875146345    -0.3531815297     1.5059929175
Bq        -5.1860986522    -0.5271123977     1.1457901299
Bq        -5.1878686301    -0.3096988127     1.5960436143
Bq        -5.1857446566    -0.5705951147     1.0557394330
Bq        -5.1882226257    -0.2662160957     1.6860943112
Bq        -5.1853906611    -0.6140778317     0.9656887362
Bq        -5.1885766212    -0.2227333786     1.7761450081
Bq        -5.1850366655    -0.6575605487     0.8756380393
Bq        -5.1868066434    -0.4401469637     1.3258915237
Bq        -5.1869897067    -0.3066128540     1.3724598395
Bq        -5.1862817155    -0.3935782880     1.1923584458
Bq        -5.1873437022    -0.2631301370     1.4625105364
Bq        -5.1859277199    -0.4370610050     1.1023077489
Bq        -5.1876976978    -0.2196474200     1.5525612333
Bq        -5.1855737244    -0.4805437220     1.0122570520
Bq        -5.1880516934    -0.1761647030     1.6426119302
Bq        -5.1852197288    -0.5240264390     0.9222063551
Bq        -5.1884056890    -0.1326819860     1.7326626271
Bq        -5.1848657332    -0.5675091560     0.8321556582
Bq        -5.1866357111    -0.3500955710     1.2824091427
Bq        -5.1868187744    -0.2165614613     1.3289774585
Bq        -5.1861107832    -0.3035268953     1.1488760647
Bq        -5.1871727700    -0.1730787443     1.4190281554
Bq        -5.1857567877    -0.3470096123     1.0588253679
Bq        -5.1875267655    -0.1295960273     1.5090788523
Bq        -5.1854027921    -0.3904923293     0.9687746710
Bq        -5.1878807611    -0.0861133103     1.5991295492
Bq        -5.1850487965    -0.4339750463     0.8787239741
Bq        -5.1882347567    -0.0426305933     1.6891802460
Bq        -5.1846948010    -0.4774577634     0.7886732772
Bq        -5.1864647788    -0.2600441783     1.2389267616
Bq        -5.1866478421    -0.1265100687     1.2854950775
Bq        -5.1859398510    -0.2134755027     1.1053936837
Bq        -5.1870018377    -0.0830273517     1.3755457744
Bq        -5.1855858554    -0.2569582197     1.0153429868
Bq        -5.1873558333    -0.0395446346     1.4655964712
Bq        -5.1852318598    -0.3004409367     0.9252922899
Bq        -5.1877098288     0.0039380824     1.5556471681

1
2
3
4
5
6
7
8
9
10
11
12
13
14
15
16
17
18
19
20
21
22
23
24
25
26
27
28
29
30
31
32
33
34
35
36
37
38
39
40
41
42
43
44
45
46
47
48
49
50
51
52
53
54
55
56
57
58
59
60
61
62
63
64
65
66
67
68
69
70
71
72
73
74
75
76
77
78
79
80
81
82
83
84
85
86
87
88
89
90
91
92
93
94
95
96
97
98
99
100
101
102
103
104
105
106
107
108
109
110
111
112
113
114
115
116
117
118
119
120
121
122
123
124
125
126
127
128
129
130
131
132
133
134
135
136
137
138
139
140
141
142
143
144
145
146
147
148
149
150
151
152
153
154
155
156
157
158
159
160
161
162
163
164
165
166
167
168
169
170
171
172
173
174
175
176
177
178
179
180
181
182
183
184
185
186
187
188
189
190
191
192
193
194
195
196
197
198
199
200
201
202
203
204
205
206
207
208
209
210
211
212
213
214
215
216
217
218
219
220
221
222
223
224
225
226
227
228
229
230
231
232
233
234
235
236

