%nproc=8
%mem=1000MB
# rb3lyp/6-311+g** NMR geom=connectivity

Title

0 1
C    -4.0500558   -0.5771862    0.8136712
H    -5.0263804   -1.0082727    1.0024760
C    -3.9381552    0.6617804    0.2400876
H    -4.8252424    1.2338890   -0.0111295
C    -2.6768410    1.2433246    0.0057578
C    -1.4974121    0.5051527    0.2848253
C    -1.6508332   -0.7338728    0.9404026
H    -0.7713646   -1.2730967    1.2633753
C    -2.8898548   -1.2624035    1.1994307
H    -2.9683706   -2.2124563    1.7152676
C    -2.5773185    2.5963696   -0.4192930
H    -3.4870728    3.1412239   -0.6474055
C    -1.3741895    3.2147896   -0.4364030
H    -1.2997315    4.2742019   -0.6578144
C    -0.1719488    2.4994090   -0.1734588
C    -0.2043917    1.1018437    0.0192689
C     1.0513491    3.2042560   -0.0676222
H     1.0427344    4.2819499   -0.1896997
C     2.1942091    2.5487446    0.2579577
H     3.1168527    3.0912848    0.4334727
C     2.2216473    1.1336562    0.2934990
C     1.0486931    0.3945528    0.0302412
C     3.4483363    0.4614633    0.5573939
H     4.3095794    1.0606054    0.8334846
C     3.5427346   -0.8855926    0.4749463
H     4.4731467   -1.3939704    0.7038822
C     2.4490052   -1.6474447   -0.0196319
C     1.2150704   -1.0057258   -0.3013573
C     0.2531113   -1.7434440   -1.0216591
H    -0.6541356   -1.2535051   -1.3462847
C     0.4494193   -3.0628597   -1.3413779
H    -0.3083162   -3.5944309   -1.9054060
C     1.6251726   -3.7207967   -0.9552541
H     1.7670048   -4.7687404   -1.1927019
C     2.6109872   -3.0144177   -0.3183050
H     3.5525612   -3.4902813   -0.0646367
Bq        -3.0870301945     0.1405581507     1.3868868920
Bq        -3.0849062211    -0.1203381513     0.8465827107
Bq        -3.0873841901     0.1840408677     1.4769375888
Bq        -3.0845522255    -0.1638208683     0.7565320138
Bq        -3.0877381857     0.2275235847     1.5669882857
Bq        -3.0841982299    -0.2073035853     0.6664813169
Bq        -3.0859682078     0.0101099997     1.1167348013
Bq        -3.0861512711     0.1436441094     1.1633031172
Bq        -3.0854432799     0.0566786753     0.9832017234
Bq        -3.0865052667     0.1871268264     1.2533538141
Bq        -3.0850892844     0.0131959583     0.8931510265
Bq        -3.0868592622     0.2306095434     1.3434045109
Bq        -3.0847352888    -0.0302867587     0.8031003296
Bq        -3.0872132578     0.2740922604     1.4334552078
Bq        -3.0843812932    -0.0737694757     0.7130496328
Bq        -3.0875672534     0.3175749774     1.5235059047
Bq        -3.0840272976    -0.1172521927     0.6229989359
Bq        -3.0857972755     0.1001613924     1.0732524203
Bq        -3.0859803388     0.2336955020     1.1198207361
Bq        -3.0852723477     0.1467300680     0.9397193424
Bq        -3.0863343344     0.2771782190     1.2098714330
Bq        -3.0849183521     0.1032473510     0.8496686455
Bq        -3.0866883300     0.3206609360     1.2999221299
Bq        -3.0845643565     0.0597646340     0.7596179486
Bq        -3.0870423255     0.3641436530     1.3899728268
Bq        -3.0842103609     0.0162819170     0.6695672517
Bq        -3.0873963211     0.4076263700     1.4800235237
Bq        -3.0838563654    -0.0272008000     0.5795165548
Bq        -3.0856263432     0.1902127850     1.0297700393
Bq        -3.0858094065     0.3237468947     1.0763383551
Bq        -3.0851014154     0.2367814607     0.8962369613
Bq        -3.0861634021     0.3672296117     1.1663890520
Bq        -3.0847474198     0.1932987437     0.8061862645
Bq        -3.0865173977     0.4107123287     1.2564397489
Bq        -3.0843934242     0.1498160267     0.7161355676
Bq        -3.0868713933     0.4541950457     1.3464904458
Bq        -3.0840394287     0.1063333097     0.6260848707
Bq        -3.0872253888     0.4976777627     1.4365411426
Bq        -3.0836854331     0.0628505927     0.5360341738
Bq        -3.0854554110     0.2802641777     0.9862876582
Bq        -3.0856384743     0.4137982874     1.0328559741
Bq        -3.0849304831     0.3268328534     0.8527545803
Bq        -3.0859924698     0.4572810044     1.1229066710
Bq        -3.0845764875     0.2833501364     0.7627038834
Bq        -3.0863464654     0.5007637214     1.2129573678
Bq        -3.0842224920     0.2398674194     0.6726531865
Bq        -3.0867004610     0.5442464384     1.3030080647
Bq        -3.0838684964     0.1963847023     0.5826024897
Bq        -3.0870544566     0.5877291554     1.3930587616
Bq        -3.0835145008     0.1529019853     0.4925517928
Bq        -3.0852844787     0.3703155704     0.9428052772
Bq        -3.0854675420     0.5038496800     0.9893735930
Bq        -3.0847595508     0.4168842460     0.8092721993
Bq        -3.0858215376     0.5473323970     1.0794242899
Bq        -3.0844055553     0.3734015290     0.7192215024
Bq        -3.0861755331     0.5908151140     1.1694749868
Bq        -3.0840515597     0.3299188120     0.6291708055
Bq        -3.0865295287     0.6342978311     1.2595256837
Bq        -3.0836975641     0.2864360950     0.5391201086
Bq        -3.0868835243     0.6777805481     1.3495763806
Bq        -3.0833435685     0.2429533780     0.4490694117
Bq        -3.0851135464     0.4603669630     0.8993228962
Bq        -3.0852966097     0.5939010727     0.9458912120
Bq        -3.0845886186     0.5069356387     0.7657898182
Bq        -3.0856506053     0.6373837897     1.0359419089
Bq        -3.0842346230     0.4634529217     0.6757391214
Bq        -3.0860046009     0.6808665067     1.1259926058
Bq        -3.0838806274     0.4199702047     0.5856884245
Bq        -3.0863585964     0.7243492237     1.2160433027
Bq        -3.0835266318     0.3764874877     0.4956377276
Bq        -3.0867125920     0.7678319407     1.3060939995
Bq        -3.0831726363     0.3330047707     0.4055870307
Bq        -3.0849426141     0.5504183557     0.8558405151
Bq        -3.0851256774     0.6839524654     0.9024088310
Bq        -3.0844176863     0.5969870314     0.7223074372
Bq        -3.0854796730     0.7274351824     0.9924595279
Bq        -3.0840636907     0.5535043144     0.6322567403
Bq        -3.0858336686     0.7709178994     1.0825102247
Bq        -3.0837096951     0.5100215974     0.5422060434
Bq        -3.0861876642     0.8144006164     1.1725609216
Bq        -3.0833556996     0.4665388804     0.4521553466
Bq        -3.0865416597     0.8578833334     1.2626116185
Bq        -3.0830017040     0.4230561634     0.3621046497
Bq        -3.0847716819     0.6404697484     0.8123581341
Bq        -3.0849547452     0.7740038581     0.8589264499
Bq        -3.0842467540     0.6870384240     0.6788250562
Bq        -3.0853087407     0.8174865751     0.9489771468
Bq        -3.0838927584     0.6435557070     0.5887743593
Bq        -3.0856627363     0.8609692921     1.0390278437
Bq        -3.0835387629     0.6000729900     0.4987236624
Bq        -3.0860167319     0.9044520091     1.1290785406
Bq        -3.0831847673     0.5565902730     0.4086729655
Bq        -3.0863707275     0.9479347261     1.2191292375
Bq        -3.0828307717     0.5131075560     0.3186222686
Bq        -3.0846007496     0.7305211410     0.7688757531
Bq        -3.0847838129     0.8640552507     0.8154440689
Bq        -3.0840758217     0.7770898167     0.6353426751
Bq        -3.0851378085     0.9075379677     0.9054947658
Bq        -3.0837218262     0.7336070997     0.5452919783
Bq        -3.0854918040     0.9510206847     0.9955454627
Bq        -3.0833678306     0.6901243827     0.4552412814
Bq        -3.0858457996     0.9945034017     1.0855961596
Bq        -3.0830138350     0.6466416657     0.3651905845
Bq        -3.0861997952     1.0379861187     1.1756468564
Bq        -3.0826598394     0.6031589487     0.2751398876
Bq        -3.0844298173     0.8205725337     0.7253933720
Bq        -3.0846128806     0.9541066434     0.7719616879
Bq        -3.0839048895     0.8671412094     0.5918602941
Bq        -3.0849668762     0.9975893604     0.8620123848
Bq        -3.0835508939     0.8236584924     0.5018095972
Bq        -3.0853208718     1.0410720774     0.9520630816
Bq        -3.0831968983     0.7801757754     0.4117589003
Bq        -3.0856748673     1.0845547944     1.0421137785
Bq        -3.0828429027     0.7366930584     0.3217082035
Bq        -3.0860288629     1.1280375114     1.1321644754
Bq        -3.0824889072     0.6932103414     0.2316575066
Bq        -3.0842588850     0.9106239264     0.6819109910
Bq        -3.0844419483     1.0441580361     0.7284793068
Bq        -3.0837339572     0.9571926021     0.5483779131
Bq        -3.0847959439     1.0876407531     0.8185300037
Bq        -3.0833799616     0.9137098850     0.4583272162
Bq        -3.0851499395     1.1311234701     0.9085807006
Bq        -3.0830259660     0.8702271680     0.3682765193
Bq        -3.0855039351     1.1746061871     0.9986313975
Bq        -3.0826719705     0.8267444510     0.2782258224
Bq        -3.0858579306     1.2180889041     1.0886820944
Bq        -3.0823179749     0.7832617340     0.1881751255
Bq        -3.0840879528     1.0006753191     0.6384286100
Bq        -3.0842710161     1.1342094287     0.6849969258
Bq        -3.0835630249     1.0472439947     0.5048955320
Bq        -3.0846250116     1.1776921457     0.7750476227
Bq        -3.0832090293     1.0037612777     0.4148448352
Bq        -3.0849790072     1.2211748627     0.8650983196
Bq        -3.0828550338     0.9602785607     0.3247941383
Bq        -3.0853330028     1.2646575797     0.9551490165
Bq        -3.0825010382     0.9167958437     0.2347434414
Bq        -3.0856869984     1.3081402968     1.0451997133
Bq        -3.0821470426     0.8733131267     0.1446927445
Bq        -3.0839170205     1.0907267117     0.5949462289
Bq        -3.0841000838     1.2242608214     0.6415145448
Bq        -3.0833920926     1.1372953874     0.4614131510
Bq        -3.0844540794     1.2677435384     0.7315652417
Bq        -3.0830380971     1.0938126704     0.3713624541
Bq        -3.0848080749     1.3112262554     0.8216159385
Bq        -3.0826841015     1.0503299534     0.2813117572
Bq        -3.0851620705     1.3547089724     0.9116666354
Bq        -3.0823301059     1.0068472364     0.1912610604
Bq        -3.0855160661     1.3981916894     1.0017173323
Bq        -3.0819761103     0.9633645194     0.1012103635
Bq        -3.0837460882     1.1807781044     0.5514638479
Bq        -3.0839291515     1.3143122141     0.5980321637
Bq        -3.0832211604     1.2273467801     0.4179307700
Bq        -3.0842831471     1.3577949311     0.6880828606
Bq        -3.0828671648     1.1838640631     0.3278800731
Bq        -3.0846371427     1.4012776481     0.7781335575
Bq        -3.0825131692     1.1403813461     0.2378293762
Bq        -3.0849911382     1.4447603651     0.8681842544
Bq        -3.0821591736     1.0968986291     0.1477786793
Bq        -3.0853451338     1.4882430821     0.9582349513
Bq        -3.0818051781     1.0534159120     0.0577279825
Bq        -3.0835751559     1.2708294971     0.5079814669
Bq        -3.0837582192     1.4043636067     0.5545497827
Bq        -3.0830502281     1.3173981727     0.3744483889
Bq        -3.0841122148     1.4478463237     0.6446004796
Bq        -3.0826962325     1.2739154557     0.2843976921
Bq        -3.0844662104     1.4913290408     0.7346511765
Bq        -3.0823422369     1.2304327387     0.1943469952
Bq        -3.0848202060     1.5348117578     0.8247018734
Bq        -3.0819882414     1.1869500217     0.1042962983
Bq        -3.0851742015     1.5782944748     0.9147525702
Bq        -3.0816342458     1.1434673047     0.0142456014
Bq        -3.0834042237     1.3608808897     0.4644990858
Bq        -3.0835872870     1.4944149994     0.5110674017
Bq        -3.0828792958     1.4074495654     0.3309660079
Bq        -3.0839412825     1.5378977164     0.6011180986
Bq        -3.0825253002     1.3639668484     0.2409153110
Bq        -3.0842952781     1.5813804334     0.6911687954
Bq        -3.0821713047     1.3204841314     0.1508646142
Bq        -3.0846492737     1.6248631504     0.7812194923
Bq        -3.0818173091     1.2770014144     0.0608139173
Bq        -3.0850032693     1.6683458674     0.8712701892
Bq        -3.0814633135     1.2335186974    -0.0292367796
Bq        -3.0832332914     1.4509322824     0.4210167048
Bq        -3.0834163547     1.5844663921     0.4675850206
Bq        -3.0827083635     1.4975009581     0.2874836269
Bq        -3.0837703503     1.6279491091     0.5576357175
Bq        -3.0823543680     1.4540182411     0.1974329300
Bq        -3.0841243458     1.6714318261     0.6476864144
Bq        -3.0820003724     1.4105355241     0.1073822331
Bq        -3.0844783414     1.7149145431     0.7377371113
Bq        -3.0816463768     1.3670528071     0.0173315362
Bq        -3.0848323370     1.7583972601     0.8277878082
Bq        -3.0812923812     1.3235700901    -0.0727191606
Bq        -3.0830623591     1.5409836751     0.3775343238
Bq        -3.0832454224     1.6745177848     0.4241026396
Bq        -3.0825374313     1.5875523507     0.2440012459
Bq        -3.0835994180     1.7180005018     0.5141533365
Bq        -3.0821834357     1.5440696337     0.1539505490
Bq        -3.0839534136     1.7614832188     0.6042040334
Bq        -3.0818294401     1.5005869167     0.0638998521

1
2
3
4
5
6
7
8
9
10
11
12
13
14
15
16
17
18
19
20
21
22
23
24
25
26
27
28
29
30
31
32
33
34
35
36
37
38
39
40
41
42
43
44
45
46
47
48
49
50
51
52
53
54
55
56
57
58
59
60
61
62
63
64
65
66
67
68
69
70
71
72
73
74
75
76
77
78
79
80
81
82
83
84
85
86
87
88
89
90
91
92
93
94
95
96
97
98
99
100
101
102
103
104
105
106
107
108
109
110
111
112
113
114
115
116
117
118
119
120
121
122
123
124
125
126
127
128
129
130
131
132
133
134
135
136
137
138
139
140
141
142
143
144
145
146
147
148
149
150
151
152
153
154
155
156
157
158
159
160
161
162
163
164
165
166
167
168
169
170
171
172
173
174
175
176
177
178
179
180
181
182
183
184
185
186
187
188
189
190
191
192
193
194
195
196
197
198
199
200
201
202
203
204
205
206
207
208
209
210
211
212
213
214
215
216
217
218
219
220
221
222
223
224
225
226
227
228
229
230
231
232
233
234
235
236

