%nproc=8
%mem=1000MB
# rb3lyp/6-311+g** NMR geom=connectivity

Title

0 1
C    -4.0500558   -0.5771862    0.8136712
H    -5.0263804   -1.0082727    1.0024760
C    -3.9381552    0.6617804    0.2400876
H    -4.8252424    1.2338890   -0.0111295
C    -2.6768410    1.2433246    0.0057578
C    -1.4974121    0.5051527    0.2848253
C    -1.6508332   -0.7338728    0.9404026
H    -0.7713646   -1.2730967    1.2633753
C    -2.8898548   -1.2624035    1.1994307
H    -2.9683706   -2.2124563    1.7152676
C    -2.5773185    2.5963696   -0.4192930
H    -3.4870728    3.1412239   -0.6474055
C    -1.3741895    3.2147896   -0.4364030
H    -1.2997315    4.2742019   -0.6578144
C    -0.1719488    2.4994090   -0.1734588
C    -0.2043917    1.1018437    0.0192689
C     1.0513491    3.2042560   -0.0676222
H     1.0427344    4.2819499   -0.1896997
C     2.1942091    2.5487446    0.2579577
H     3.1168527    3.0912848    0.4334727
C     2.2216473    1.1336562    0.2934990
C     1.0486931    0.3945528    0.0302412
C     3.4483363    0.4614633    0.5573939
H     4.3095794    1.0606054    0.8334846
C     3.5427346   -0.8855926    0.4749463
H     4.4731467   -1.3939704    0.7038822
C     2.4490052   -1.6474447   -0.0196319
C     1.2150704   -1.0057258   -0.3013573
C     0.2531113   -1.7434440   -1.0216591
H    -0.6541356   -1.2535051   -1.3462847
C     0.4494193   -3.0628597   -1.3413779
H    -0.3083162   -3.5944309   -1.9054060
C     1.6251726   -3.7207967   -0.9552541
H     1.7670048   -4.7687404   -1.1927019
C     2.6109872   -3.0144177   -0.3183050
H     3.5525612   -3.4902813   -0.0646367
Bq         0.2179250019     0.2500706662     0.7280847326
Bq         0.2758288140     0.2304167259     0.3327862743
Bq         0.2034490488     0.2549841513     0.8269093472
Bq         0.2903047671     0.2255032408     0.2339616597
Bq         0.1889730958     0.2598976364     0.9257339618
Bq         0.3047807201     0.2205897557     0.1351370451
Bq         0.1744971427     0.2648111215     1.0245585764
Bq         0.3192566732     0.2156762706     0.0363124305
Bq         0.2468769079     0.2402436960     0.5304355035
Bq         0.2331130888     0.3450363965     0.6243985133
Bq         0.2620649949     0.3352094263     0.4267492841
Bq         0.2186371358     0.3499498816     0.7232231279
Bq         0.2765409480     0.3302959413     0.3279246695
Bq         0.2041611828     0.3548633667     0.8220477424
Bq         0.2910169010     0.3253824562     0.2291000549
Bq         0.1896852297     0.3597768518     0.9208723570
Bq         0.3054928541     0.3204689711     0.1302754404
Bq         0.1752092767     0.3646903368     1.0196969716
Bq         0.3199688071     0.3155554860     0.0314508258
Bq         0.2475890419     0.3401229114     0.5255738987
Bq         0.2338252228     0.4449156119     0.6195369085
Bq         0.2627771289     0.4350886417     0.4218876793
Bq         0.2193492697     0.4498290970     0.7183615231
Bq         0.2772530819     0.4301751566     0.3230630648
Bq         0.2048733167     0.4547425820     0.8171861377
Bq         0.2917290350     0.4252616716     0.2242384502
Bq         0.1903973637     0.4596560671     0.9160107523
Bq         0.3062049880     0.4203481865     0.1254138356
Bq         0.1759214106     0.4645695522     1.0148353668
Bq         0.3206809410     0.4154347014     0.0265892210
Bq         0.2483011758     0.4400021268     0.5207122939
Bq         0.2345373567     0.5447948273     0.6146753037
Bq         0.2634892628     0.5349678571     0.4170260746
Bq         0.2200614037     0.5497083123     0.7134999183
Bq         0.2779652159     0.5300543720     0.3182014600
Bq         0.2055854506     0.5546217974     0.8123245329
Bq         0.2924411689     0.5251408869     0.2193768454
Bq         0.1911094976     0.5595352825     0.9111491475
Bq         0.3069171219     0.5202274018     0.1205522308
Bq         0.1766335445     0.5644487676     1.0099737621
Bq         0.3213930750     0.5153139168     0.0217276162
Bq         0.2490133098     0.5398813422     0.5158506892
Bq         0.2352494907     0.6446740426     0.6098136990
Bq         0.2642013968     0.6348470725     0.4121644698
Bq         0.2207735376     0.6495875277     0.7086383136
Bq         0.2786773498     0.6299335874     0.3133398552
Bq         0.2062975846     0.6545010128     0.8074629281
Bq         0.2931533028     0.6250201023     0.2145152406
Bq         0.1918216315     0.6594144979     0.9062875427
Bq         0.3076292559     0.6201066172     0.1156906261
Bq         0.1773456785     0.6643279830     1.0051121573
Bq         0.3221052089     0.6151931321     0.0168660115
Bq         0.2497254437     0.6397605576     0.5109890844
Bq         0.2359616246     0.7445532580     0.6049520942
Bq         0.2649135307     0.7347262878     0.4073028650
Bq         0.2214856716     0.7494667431     0.7037767088
Bq         0.2793894837     0.7298128028     0.3084782505
Bq         0.2070097185     0.7543802282     0.8026013234
Bq         0.2938654368     0.7248993177     0.2096536359
Bq         0.1925337655     0.7592937133     0.9014259380
Bq         0.3083413898     0.7199858326     0.1108290213
Bq         0.1780578124     0.7642071983     1.0002505525
Bq         0.3228173429     0.7150723475     0.0120044067
Bq         0.2504375777     0.7396397729     0.5061274796
Bq         0.2366737586     0.8444324734     0.6000904894
Bq         0.2656256646     0.8346055032     0.4024412603
Bq         0.2221978055     0.8493459585     0.6989151040
Bq         0.2801016177     0.8296920181     0.3036166457
Bq         0.2077218525     0.8542594436     0.7977397186
Bq         0.2945775707     0.8247785331     0.2047920311
Bq         0.1932458994     0.8591729286     0.8965643332
Bq         0.3090535238     0.8198650480     0.1059674165
Bq         0.1787699464     0.8640864137     0.9953889478
Bq         0.3235294768     0.8149515629     0.0071428019
Bq         0.2511497116     0.8395189883     0.5012658749
Bq         0.2373858925     0.9443116888     0.5952288847
Bq         0.2663377986     0.9344847186     0.3975796555
Bq         0.2229099394     0.9492251739     0.6940534993
Bq         0.2808137516     0.9295712335     0.2987550409
Bq         0.2084339864     0.9541386589     0.7928781138
Bq         0.2952897047     0.9246577484     0.1999304263
Bq         0.1939580334     0.9590521440     0.8917027284
Bq         0.3097656577     0.9197442634     0.1011058118
Bq         0.1794820803     0.9639656291     0.9905273430
Bq         0.3242416108     0.9148307783     0.0022811972
Bq         0.2518618455     0.9393982037     0.4964042701
Bq         0.2380980264     1.0441909041     0.5903672799
Bq         0.2670499325     1.0343639340     0.3927180507
Bq         0.2236220734     1.0491043892     0.6891918945
Bq         0.2815258856     1.0294504489     0.2938934362
Bq         0.2091461203     1.0540178743     0.7880165091
Bq         0.2960018386     1.0245369638     0.1950688216
Bq         0.1946701673     1.0589313594     0.8868411237
Bq         0.3104777917     1.0196234787     0.0962442070
Bq         0.1801942143     1.0638448445     0.9856657382
Bq         0.3249537447     1.0147099936    -0.0025804076
Bq         0.2525739795     1.0392774191     0.4915426653
Bq         0.2388101604     1.1440701195     0.5855056751
Bq         0.2677620665     1.1342431494     0.3878564460
Bq         0.2243342073     1.1489836046     0.6843302897
Bq         0.2822380195     1.1293296643     0.2890318314
Bq         0.2098582543     1.1538970897     0.7831549043
Bq         0.2967139726     1.1244161792     0.1902072168
Bq         0.1953823012     1.1588105748     0.8819795189
Bq         0.3111899256     1.1195026941     0.0913826022
Bq         0.1809063482     1.1637240599     0.9808041335
Bq         0.3256658786     1.1145892090    -0.0074420124
Bq         0.2532861134     1.1391566344     0.4866810606
Bq         0.2395222943     1.2439493349     0.5806440704
Bq         0.2684742004     1.2341223647     0.3829948412
Bq         0.2250463413     1.2488628200     0.6794686850
Bq         0.2829501534     1.2292088797     0.2841702266
Bq         0.2105703882     1.2537763051     0.7782932995
Bq         0.2974261065     1.2242953946     0.1853456120
Bq         0.1960944352     1.2586897901     0.8771179141
Bq         0.3119020595     1.2193819095     0.0865209975
Bq         0.1816184821     1.2636032752     0.9759425287
Bq         0.3263780126     1.2144684244    -0.0123036171
Bq         0.2539982474     1.2390358498     0.4818194558
Bq         0.2402344283     1.3438285503     0.5757824656
Bq         0.2691863343     1.3340015801     0.3781332364
Bq         0.2257584752     1.3487420354     0.6746070802
Bq         0.2836622874     1.3290880950     0.2793086219
Bq         0.2112825222     1.3536555204     0.7734316948
Bq         0.2981382404     1.3241746099     0.1804840073
Bq         0.1968065691     1.3585690055     0.8722563094
Bq         0.3126141935     1.3192611249     0.0816593927
Bq         0.1823306161     1.3634824906     0.9710809239
Bq         0.3270901465     1.3143476398    -0.0171652219
Bq         0.2547103813     1.3389150652     0.4769578510
Bq         0.2409465622     1.4437077657     0.5709208608
Bq         0.2698984683     1.4338807955     0.3732716317
Bq         0.2264706092     1.4486212507     0.6697454754
Bq         0.2843744213     1.4289673104     0.2744470171
Bq         0.2119946561     1.4535347358     0.7685700900
Bq         0.2988503744     1.4240538253     0.1756224025
Bq         0.1975187031     1.4584482209     0.8673947046
Bq         0.3133263274     1.4191403402     0.0767977879
Bq         0.1830427500     1.4633617060     0.9662193192
Bq         0.3278022805     1.4142268552    -0.0220268267
Bq         0.2554225152     1.4387942806     0.4720962463
Bq         0.2416586961     1.5435869810     0.5660592561
Bq         0.2706106022     1.5337600109     0.3684100269
Bq         0.2271827431     1.5485004661     0.6648838707
Bq         0.2850865553     1.5288465258     0.2695854123
Bq         0.2127067901     1.5534139512     0.7637084852
Bq         0.2995625083     1.5239330407     0.1707607977
Bq         0.1982308370     1.5583274363     0.8625330998
Bq         0.3140384614     1.5190195556     0.0719361832
Bq         0.1837548840     1.5632409214     0.9613577144
Bq         0.3285144144     1.5141060705    -0.0268884314
Bq         0.2561346492     1.5386734959     0.4672346415
Bq         0.2423708301     1.6434661964     0.5611976513
Bq         0.2713227362     1.6336392262     0.3635484221
Bq         0.2278948770     1.6483796815     0.6600222659
Bq         0.2857986892     1.6287257412     0.2647238076
Bq         0.2134189240     1.6532931666     0.7588468805
Bq         0.3002746423     1.6238122561     0.1658991930
Bq         0.1989429710     1.6582066517     0.8576714951
Bq         0.3147505953     1.6188987710     0.0670745784
Bq         0.1844670179     1.6631201367     0.9564961096
Bq         0.3292265483     1.6139852859    -0.0317500362
Bq         0.2568467831     1.6385527113     0.4623730367
Bq         0.2430829640     1.7433454118     0.5563360465
Bq         0.2720348701     1.7335184416     0.3586868174
Bq         0.2286070110     1.7482588969     0.6551606611
Bq         0.2865108232     1.7286049565     0.2598622028
Bq         0.2141310579     1.7531723819     0.7539852757
Bq         0.3009867762     1.7236914715     0.1610375882
Bq         0.1996551049     1.7580858670     0.8528098903
Bq         0.3154627292     1.7187779864     0.0622129736
Bq         0.1851791518     1.7629993521     0.9516345049
Bq         0.3299386823     1.7138645013    -0.0366116410
Bq         0.2575589171     1.7384319267     0.4575114320
Bq         0.2437950980     1.8432246272     0.5514744418
Bq         0.2727470041     1.8333976570     0.3538252126
Bq         0.2293191449     1.8481381122     0.6502990564
Bq         0.2872229571     1.8284841719     0.2550005980
Bq         0.2148431919     1.8530515973     0.7491236709
Bq         0.3016989101     1.8235706868     0.1561759834
Bq         0.2003672388     1.8579650824     0.8479482855
Bq         0.3161748632     1.8186572017     0.0573513689
Bq         0.1858912858     1.8628785675     0.9467729001
Bq         0.3306508162     1.8137437167    -0.0414732457
Bq         0.2582710510     1.8383111421     0.4526498272
Bq         0.2445072319     1.9431038425     0.5466128370
Bq         0.2734591380     1.9332768724     0.3489636078
Bq         0.2300312789     1.9480173276     0.6454374516
Bq         0.2879350910     1.9283633873     0.2501389933
Bq         0.2155553258     1.9529308127     0.7442620662
Bq         0.3024110441     1.9234499022     0.1513143787
Bq         0.2010793728     1.9578442978     0.8430866808
Bq         0.3168869971     1.9185364171     0.0524897641
Bq         0.1866034197     1.9627577829     0.9419112953
Bq         0.3313629502     1.9136229320    -0.0463348505
Bq         0.2589831850     1.9381903575     0.4477882224
Bq         0.2452193659     2.0429830579     0.5417512322
Bq         0.2741712719     2.0331560878     0.3441020031
Bq         0.2307434128     2.0478965430     0.6405758468
Bq         0.2886472250     2.0282426027     0.2452773885

1
2
3
4
5
6
7
8
9
10
11
12
13
14
15
16
17
18
19
20
21
22
23
24
25
26
27
28
29
30
31
32
33
34
35
36
37
38
39
40
41
42
43
44
45
46
47
48
49
50
51
52
53
54
55
56
57
58
59
60
61
62
63
64
65
66
67
68
69
70
71
72
73
74
75
76
77
78
79
80
81
82
83
84
85
86
87
88
89
90
91
92
93
94
95
96
97
98
99
100
101
102
103
104
105
106
107
108
109
110
111
112
113
114
115
116
117
118
119
120
121
122
123
124
125
126
127
128
129
130
131
132
133
134
135
136
137
138
139
140
141
142
143
144
145
146
147
148
149
150
151
152
153
154
155
156
157
158
159
160
161
162
163
164
165
166
167
168
169
170
171
172
173
174
175
176
177
178
179
180
181
182
183
184
185
186
187
188
189
190
191
192
193
194
195
196
197
198
199
200
201
202
203
204
205
206
207
208
209
210
211
212
213
214
215
216
217
218
219
220
221
222
223
224
225
226
227
228
229
230
231
232
233
234
235
236

