%nproc=8
%mem=1000MB
# rb3lyp/6-311+g** NMR geom=connectivity

Title

0 1
C    -4.0500558   -0.5771862    0.8136712
H    -5.0263804   -1.0082727    1.0024760
C    -3.9381552    0.6617804    0.2400876
H    -4.8252424    1.2338890   -0.0111295
C    -2.6768410    1.2433246    0.0057578
C    -1.4974121    0.5051527    0.2848253
C    -1.6508332   -0.7338728    0.9404026
H    -0.7713646   -1.2730967    1.2633753
C    -2.8898548   -1.2624035    1.1994307
H    -2.9683706   -2.2124563    1.7152676
C    -2.5773185    2.5963696   -0.4192930
H    -3.4870728    3.1412239   -0.6474055
C    -1.3741895    3.2147896   -0.4364030
H    -1.2997315    4.2742019   -0.6578144
C    -0.1719488    2.4994090   -0.1734588
C    -0.2043917    1.1018437    0.0192689
C     1.0513491    3.2042560   -0.0676222
H     1.0427344    4.2819499   -0.1896997
C     2.1942091    2.5487446    0.2579577
H     3.1168527    3.0912848    0.4334727
C     2.2216473    1.1336562    0.2934990
C     1.0486931    0.3945528    0.0302412
C     3.4483363    0.4614633    0.5573939
H     4.3095794    1.0606054    0.8334846
C     3.5427346   -0.8855926    0.4749463
H     4.4731467   -1.3939704    0.7038822
C     2.4490052   -1.6474447   -0.0196319
C     1.2150704   -1.0057258   -0.3013573
C     0.2531113   -1.7434440   -1.0216591
H    -0.6541356   -1.2535051   -1.3462847
C     0.4494193   -3.0628597   -1.3413779
H    -0.3083162   -3.5944309   -1.9054060
C     1.6251726   -3.7207967   -0.9552541
H     1.7670048   -4.7687404   -1.1927019
C     2.6109872   -3.0144177   -0.3183050
H     3.5525612   -3.4902813   -0.0646367
Bq        -4.5827089047     1.7210864604     0.2846730026
Bq        -4.5828919680     1.8546205701     0.3312413184
Bq        -4.5821839769     1.7676551361     0.1511399247
Bq        -4.5832459636     1.8981032871     0.4212920153
Bq        -4.5818299813     1.7241724191     0.0610892278
Bq        -4.5835999592     1.9415860041     0.5113427122
Bq        -4.5814759857     1.6806897021    -0.0289614691
Bq        -4.5839539547     1.9850687211     0.6013934091
Bq        -4.5811219901     1.6372069851    -0.1190121660
Bq        -4.5843079503     2.0285514381     0.6914441059
Bq        -4.5807679946     1.5937242681    -0.2090628629
Bq        -4.5825379724     1.8111378531     0.2411906215
Bq        -4.5827210357     1.9446719628     0.2877589374
Bq        -4.5820130446     1.8577065288     0.1076575436
Bq        -4.5830750313     1.9881546798     0.3778096343
Bq        -4.5816590490     1.8142238118     0.0176068467
Bq        -4.5834290269     2.0316373968     0.4678603312
Bq        -4.5813050534     1.7707410947    -0.0724438501
Bq        -4.5837830225     2.0751201138     0.5579110280
Bq        -4.5809510579     1.7272583777    -0.1624945470
Bq        -4.5841370180     2.1186028308     0.6479617249
Bq        -4.5805970623     1.6837756607    -0.2525452439
Bq        -4.5823670402     1.9011892458     0.1977082405
Bq        -4.5825501035     2.0347233554     0.2442765564
Bq        -4.5818421123     1.9477579214     0.0641751626
Bq        -4.5829040990     2.0782060724     0.3343272532
Bq        -4.5814881167     1.9042752044    -0.0258755343
Bq        -4.5832580946     2.1216887894     0.4243779501
Bq        -4.5811341212     1.8607924874    -0.1159262312
Bq        -4.5836120902     2.1651715065     0.5144286470
Bq        -4.5807801256     1.8173097704    -0.2059769281
Bq        -4.5839660858     2.2086542235     0.6044793439
Bq        -4.5804261300     1.7738270534    -0.2960276249
Bq        -4.5821961079     1.9912406384     0.1542258595
Bq        -4.5823791712     2.1247747481     0.2007941753
Bq        -4.5816711800     2.0378093141     0.0206927816
Bq        -4.5827331668     2.1682574651     0.2908448722
Bq        -4.5813171845     1.9943265971    -0.0693579153
Bq        -4.5830871623     2.2117401821     0.3808955691
Bq        -4.5809631889     1.9508438801    -0.1594086122
Bq        -4.5834411579     2.2552228991     0.4709462660
Bq        -4.5806091933     1.9073611631    -0.2494593091
Bq        -4.5837951535     2.2987056161     0.5609969629
Bq        -4.5802551977     1.8638784461    -0.3395100060
Bq        -4.5820251756     2.0812920311     0.1107434784
Bq        -4.5822082389     2.2148261408     0.1573117943
Bq        -4.5815002478     2.1278607068    -0.0227895995
Bq        -4.5825622345     2.2583088578     0.2473624912
Bq        -4.5811462522     2.0843779898    -0.1128402964
Bq        -4.5829162301     2.3017915748     0.3374131881
Bq        -4.5807922566     2.0408952728    -0.2028909932
Bq        -4.5832702256     2.3452742918     0.4274638849
Bq        -4.5804382610     1.9974125558    -0.2929416901
Bq        -4.5836242212     2.3887570088     0.5175145818
Bq        -4.5800842655     1.9539298388    -0.3829923870
Bq        -4.5818542433     2.1713434238     0.0672610974
Bq        -4.5820373066     2.3048775334     0.1138294133
Bq        -4.5813293155     2.2179120994    -0.0662719805
Bq        -4.5823913022     2.3483602505     0.2038801101
Bq        -4.5809753199     2.1744293824    -0.1563226774
Bq        -4.5827452978     2.3918429675     0.2939308070
Bq        -4.5806213243     2.1309466654    -0.2463733743
Bq        -4.5830992934     2.4353256845     0.3839815039
Bq        -4.5802673288     2.0874639484    -0.3364240712
Bq        -4.5834532889     2.4788084015     0.4740322008
Bq        -4.5799133332     2.0439812314    -0.4264747680
Bq        -4.5816833111     2.2613948164     0.0237787164
Bq        -4.5818663744     2.3949289261     0.0703470322
Bq        -4.5811583832     2.3079634921    -0.1097543615
Bq        -4.5822203699     2.4384116431     0.1603977291
Bq        -4.5808043876     2.2644807751    -0.1998050584
Bq        -4.5825743655     2.4818943601     0.2504484260
Bq        -4.5804503921     2.2209980581    -0.2898557553
Bq        -4.5829283611     2.5253770771     0.3404991229
Bq        -4.5800963965     2.1775153411    -0.3799064522
Bq        -4.5832823567     2.5688597941     0.4305498198
Bq        -4.5797424009     2.1340326241    -0.4699571491
Bq        -4.5815123788     2.3514462091    -0.0197036647
Bq        -4.5816954421     2.4849803188     0.0268646512
Bq        -4.5809874509     2.3980148848    -0.1532367426
Bq        -4.5820494377     2.5284630358     0.1169153481
Bq        -4.5806334554     2.3545321678    -0.2432874395
Bq        -4.5824034332     2.5719457528     0.2069660450
Bq        -4.5802794598     2.3110494508    -0.3333381363
Bq        -4.5827574288     2.6154284698     0.2970167418
Bq        -4.5799254642     2.2675667338    -0.4233888332
Bq        -4.5831114244     2.6589111868     0.3870674387
Bq        -4.5795714686     2.2240840168    -0.5134395301
Bq        -4.5813414465     2.4414976018    -0.0631860457
Bq        -4.4902428285    -2.0175893147     2.2013768068
Bq        -4.4895348373    -2.1045547487     2.0212754130
Bq        -4.4905968241    -1.9741065977     2.2914275036
Bq        -4.4891808418    -2.1480374658     1.9312247161
Bq        -4.4909508196    -1.9306238807     2.3814782005
Bq        -4.4888268462    -2.1915201828     1.8411740192
Bq        -4.4913048152    -1.8871411637     2.4715288974
Bq        -4.4884728506    -2.2350028998     1.7511233223
Bq        -4.4916588108    -1.8436584467     2.5615795943
Bq        -4.4881188550    -2.2784856168     1.6610726255
Bq        -4.4898888329    -2.0610720317     2.1113261099
Bq        -4.4900718962    -1.9275379221     2.1578944257
Bq        -4.4893639051    -2.0145033561     1.9777930320
Bq        -4.4904258918    -1.8840552051     2.2479451226
Bq        -4.4890099095    -2.0579860731     1.8877423351
Bq        -4.4907798874    -1.8405724881     2.3379958195
Bq        -4.4886559139    -2.1014687901     1.7976916382
Bq        -4.4911338829    -1.7970897711     2.4280465164
Bq        -4.4883019183    -2.1449515071     1.7076409413
Bq        -4.4914878785    -1.7536070540     2.5180972133
Bq        -4.4879479228    -2.1884342241     1.6175902444
Bq        -4.4897179006    -1.9710206391     2.0678437288
Bq        -4.4899009639    -1.8374865294     2.1144120447
Bq        -4.4891929728    -1.9244519634     1.9343106509
Bq        -4.4902549595    -1.7940038124     2.2044627416
Bq        -4.4888389772    -1.9679346804     1.8442599540
Bq        -4.4906089551    -1.7505210954     2.2945134385
Bq        -4.4884849816    -2.0114173974     1.7542092572
Bq        -4.4909629507    -1.7070383784     2.3845641353
Bq        -4.4881309861    -2.0549001144     1.6641585603
Bq        -4.4913169462    -1.6635556614     2.4746148322
Bq        -4.4877769905    -2.0983828314     1.5741078634
Bq        -4.4895469684    -1.8809692464     2.0243613478
Bq        -4.4897300317    -1.7474351367     2.0709296637
Bq        -4.4890220405    -1.8344005707     1.8908282699
Bq        -4.4900840272    -1.7039524197     2.1609803605
Bq        -4.4886680449    -1.8778832877     1.8007775730
Bq        -4.4904380228    -1.6604697027     2.2510310574
Bq        -4.4883140494    -1.9213660047     1.7107268761
Bq        -4.4907920184    -1.6169869857     2.3410817543
Bq        -4.4879600538    -1.9648487217     1.6206761792
Bq        -4.4911460140    -1.5735042687     2.4311324512
Bq        -4.4876060582    -2.0083314388     1.5306254824
Bq        -4.4893760361    -1.7909178537     1.9808789668
Bq        -4.4895590994    -1.6573837441     2.0274472826
Bq        -4.4888511082    -1.7443491781     1.8473458889
Bq        -4.4899130950    -1.6139010270     2.1174979795
Bq        -4.4884971127    -1.7878318951     1.7572951920
Bq        -4.4902670905    -1.5704183100     2.2075486764
Bq        -4.4881431171    -1.8313146121     1.6672444951
Bq        -4.4906210861    -1.5269355930     2.2975993733
Bq        -4.4877891215    -1.8747973291     1.5771937982
Bq        -4.4909750817    -1.4834528760     2.3876500702
Bq        -4.4874351259    -1.9182800461     1.4871431013
Bq        -4.4892051038    -1.7008664611     1.9373965857
Bq        -4.4893881671    -1.5673323514     1.9839649016
Bq        -4.4886801760    -1.6542977854     1.8038635078
Bq        -4.4897421627    -1.5238496344     2.0740155985
Bq        -4.4883261804    -1.6977805024     1.7138128109
Bq        -4.4900961583    -1.4803669174     2.1640662954
Bq        -4.4879721848    -1.7412632194     1.6237621141
Bq        -4.4904501538    -1.4368842004     2.2541169922
Bq        -4.4876181892    -1.7847459364     1.5337114172
Bq        -4.4908041494    -1.3934014834     2.3441676891
Bq        -4.4872641937    -1.8282286534     1.4436607203
Bq        -4.4890341715    -1.6108150684     1.8939142047
Bq        -4.4892172348    -1.4772809587     1.9404825206
Bq        -4.4885092437    -1.5642463927     1.7603811268
Bq        -4.4895712304    -1.4337982417     2.0305332174
Bq        -4.4881552481    -1.6077291097     1.6703304299
Bq        -4.4899252260    -1.3903155247     2.1205839143
Bq        -4.4878012525    -1.6512118267     1.5802797330
Bq        -4.4902792216    -1.3468328077     2.2106346112
Bq        -4.4874472570    -1.6946945437     1.4902290361
Bq        -4.4906332171    -1.3033500907     2.3006853081
Bq        -4.4870932614    -1.7381772607     1.4001783393
Bq        -4.4888632393    -1.5207636757     1.8504318237
Bq        -4.4890463026    -1.3872295660     1.8970001395
Bq        -4.4883383114    -1.4741950001     1.7168987458
Bq        -4.4894002981    -1.3437468490     1.9870508364
Bq        -4.4879843158    -1.5176777171     1.6268480489
Bq        -4.4897542937    -1.3002641320     2.0771015333
Bq        -4.4876303203    -1.5611604341     1.5367973520
Bq        -4.4901082893    -1.2567814150     2.1671522302
Bq        -4.4872763247    -1.6046431511     1.4467466551
Bq        -4.4904622849    -1.2132986980     2.2572029271
Bq        -4.4869223291    -1.6481258681     1.3566959582
Bq        -4.4886923070    -1.4307122830     1.8069494426
Bq        -4.4888753703    -1.2971781734     1.8535177585
Bq        -4.4881673791    -1.3841436074     1.6734163647
Bq        -4.4892293659    -1.2536954564     1.9435684554
Bq        -4.4878133836    -1.4276263244     1.5833656678
Bq        -4.4895833614    -1.2102127394     2.0336191523
Bq        -4.4874593880    -1.4711090414     1.4933149710
Bq        -4.4899373570    -1.1667300224     2.1236698491
Bq        -4.4871053924    -1.5145917584     1.4032642741
Bq        -4.4902913526    -1.1232473054     2.2137205460
Bq        -4.4867513968    -1.5580744754     1.3132135772
Bq        -4.4885213747    -1.3406608904     1.7634670616
Bq        -4.4887044380    -1.2071267807     1.8100353775
Bq        -4.4879964469    -1.2940922147     1.6299339837
Bq        -4.4890584336    -1.1636440637     1.9000860743
Bq        -4.4876424513    -1.3375749317     1.5398832868
Bq        -4.4894124292    -1.1201613467     1.9901367712
Bq        -4.4872884557    -1.3810576487     1.4498325899
Bq        -4.4897664247    -1.0766786297     2.0801874681
Bq        -4.4869344601    -1.4245403657     1.3597818931
Bq        -4.4901204203    -1.0331959127     2.1702381650
Bq        -4.4865804646    -1.4680230827     1.2697311962
Bq        -4.4883504424    -1.2506094977     1.7199846806
Bq        -4.4885335057    -1.1170753880     1.7665529964

1
2
3
4
5
6
7
8
9
10
11
12
13
14
15
16
17
18
19
20
21
22
23
24
25
26
27
28
29
30
31
32
33
34
35
36
37
38
39
40
41
42
43
44
45
46
47
48
49
50
51
52
53
54
55
56
57
58
59
60
61
62
63
64
65
66
67
68
69
70
71
72
73
74
75
76
77
78
79
80
81
82
83
84
85
86
87
88
89
90
91
92
93
94
95
96
97
98
99
100
101
102
103
104
105
106
107
108
109
110
111
112
113
114
115
116
117
118
119
120
121
122
123
124
125
126
127
128
129
130
131
132
133
134
135
136
137
138
139
140
141
142
143
144
145
146
147
148
149
150
151
152
153
154
155
156
157
158
159
160
161
162
163
164
165
166
167
168
169
170
171
172
173
174
175
176
177
178
179
180
181
182
183
184
185
186
187
188
189
190
191
192
193
194
195
196
197
198
199
200
201
202
203
204
205
206
207
208
209
210
211
212
213
214
215
216
217
218
219
220
221
222
223
224
225
226
227
228
229
230
231
232
233
234
235
236

