%nproc=8
%mem=1000MB
# rb3lyp/6-311+g** NMR geom=connectivity

Title

0 1
C    -4.0500558   -0.5771862    0.8136712
H    -5.0263804   -1.0082727    1.0024760
C    -3.9381552    0.6617804    0.2400876
H    -4.8252424    1.2338890   -0.0111295
C    -2.6768410    1.2433246    0.0057578
C    -1.4974121    0.5051527    0.2848253
C    -1.6508332   -0.7338728    0.9404026
H    -0.7713646   -1.2730967    1.2633753
C    -2.8898548   -1.2624035    1.1994307
H    -2.9683706   -2.2124563    1.7152676
C    -2.5773185    2.5963696   -0.4192930
H    -3.4870728    3.1412239   -0.6474055
C    -1.3741895    3.2147896   -0.4364030
H    -1.2997315    4.2742019   -0.6578144
C    -0.1719488    2.4994090   -0.1734588
C    -0.2043917    1.1018437    0.0192689
C     1.0513491    3.2042560   -0.0676222
H     1.0427344    4.2819499   -0.1896997
C     2.1942091    2.5487446    0.2579577
H     3.1168527    3.0912848    0.4334727
C     2.2216473    1.1336562    0.2934990
C     1.0486931    0.3945528    0.0302412
C     3.4483363    0.4614633    0.5573939
H     4.3095794    1.0606054    0.8334846
C     3.5427346   -0.8855926    0.4749463
H     4.4731467   -1.3939704    0.7038822
C     2.4490052   -1.6474447   -0.0196319
C     1.2150704   -1.0057258   -0.3013573
C     0.2531113   -1.7434440   -1.0216591
H    -0.6541356   -1.2535051   -1.3462847
C     0.4494193   -3.0628597   -1.3413779
H    -0.3083162   -3.5944309   -1.9054060
C     1.6251726   -3.7207967   -0.9552541
H     1.7670048   -4.7687404   -1.1927019
C     2.6109872   -3.0144177   -0.3183050
H     3.5525612   -3.4902813   -0.0646367
Bq        -1.3414294144     3.2120527319    -0.3559245140
Bq        -1.4138091796     3.2366201574     0.1381985589
Bq        -1.4275729987     3.3414128578     0.2321615687
Bq        -1.3986210926     3.3315858877     0.0345123396
Bq        -1.4420489518     3.3463263429     0.3309861833
Bq        -1.3841451396     3.3266724026    -0.0643122750
Bq        -1.4565249048     3.3512398280     0.4298107979
Bq        -1.3696691865     3.3217589175    -0.1631368896
Bq        -1.4710008579     3.3561533131     0.5286354125
Bq        -1.3551932335     3.3168454324    -0.2619615042
Bq        -1.4854768109     3.3610667981     0.6274600271
Bq        -1.3407172805     3.3119319473    -0.3607861188
Bq        -1.4130970457     3.3364993727     0.1333369542
Bq        -1.4268608648     3.4412920732     0.2272999640
Bq        -1.3979089587     3.4314651030     0.0296507348
Bq        -1.4413368178     3.4462055583     0.3261245786
Bq        -1.3834330056     3.4265516179    -0.0691738798
Bq        -1.4558127709     3.4511190434     0.4249491931
Bq        -1.3689570526     3.4216381329    -0.1679984944
Bq        -1.4702887239     3.4560325284     0.5237738077
Bq        -1.3544810996     3.4167246478    -0.2668231089
Bq        -1.4847646770     3.4609460135     0.6225984223
Bq        -1.3400051465     3.4118111627    -0.3656477235
Bq        -1.4123849117     3.4363785881     0.1284753494
Bq        -1.4261487308     3.5411712886     0.2224383592
Bq        -1.3971968248     3.5313443184     0.0247891300
Bq        -1.4406246839     3.5460847737     0.3212629738
Bq        -1.3827208717     3.5264308333    -0.0740354845
Bq        -1.4551006369     3.5509982587     0.4200875884
Bq        -1.3682449187     3.5215173482    -0.1728600991
Bq        -1.4695765900     3.5559117438     0.5189122030
Bq        -1.3537689656     3.5166038632    -0.2716847137
Bq        -1.4840525430     3.5608252289     0.6177368175
Bq        -1.3392930126     3.5116903781    -0.3705093283
Bq        -1.4116727778     3.5362578035     0.1236137446
Bq        -1.4254365969     3.6410505039     0.2175767544
Bq        -1.3964846908     3.6312235338     0.0199275253
Bq        -1.4399125499     3.6459639890     0.3164013690
Bq        -1.3820087378     3.6263100487    -0.0788970893
Bq        -1.4543885030     3.6508774741     0.4152259836
Bq        -1.3675327847     3.6213965636    -0.1777217039
Bq        -1.4688644560     3.6557909592     0.5140505982
Bq        -1.3530568317     3.6164830785    -0.2765463185
Bq        -1.4833404091     3.6607044443     0.6128752128
Bq        -1.3385808786     3.6115695935    -0.3753709331
Bq        -1.4109606439     3.6361370189     0.1187521399
Bq        -1.4247244630     3.7409297193     0.2127151497
Bq        -1.3957725569     3.7311027492     0.0150659205
Bq        -1.4392004160     3.7458432044     0.3115397643
Bq        -1.3812966038     3.7261892641    -0.0837586941
Bq        -1.4536763690     3.7507566895     0.4103643788
Bq        -1.3668206508     3.7212757790    -0.1825833087
Bq        -1.4681523221     3.7556701746     0.5091889934
Bq        -1.3523446977     3.7163622939    -0.2814079232
Bq        -1.4826282751     3.7605836597     0.6080136080
Bq        -1.3378687447     3.7114488088    -0.3802325378
Bq        -1.4102485099     3.7360162342     0.1138905351
Bq        -1.4240123290     3.8408089347     0.2078535449
Bq        -1.3950604229     3.8309819645     0.0102043157
Bq        -1.4384882821     3.8457224198     0.3066781595
Bq        -1.3805844699     3.8260684795    -0.0886202988
Bq        -1.4529642351     3.8506359049     0.4055027741
Bq        -1.3661085168     3.8211549944    -0.1874449134
Bq        -1.4674401881     3.8555493900     0.5043273887
Bq        -1.3516325638     3.8162415093    -0.2862695280
Bq        -1.4819161412     3.8604628750     0.6031520032
Bq        -1.3371566108     3.8113280242    -0.3850941426
Bq        -1.4095363760     3.8358954496     0.1090289303
Bq        -1.4233001951     3.9406881501     0.2029919401
Bq        -1.3943482890     3.9308611799     0.0053427110
Bq        -1.4377761481     3.9456016352     0.3018165547
Bq        -1.3798723359     3.9259476948    -0.0934819036
Bq        -1.4522521012     3.9505151202     0.4006411693
Bq        -1.3653963829     3.9210342098    -0.1923065182
Bq        -1.4667280542     3.9554286053     0.4994657839
Bq        -1.3509204299     3.9161207247    -0.2911311328
Bq        -1.4812040073     3.9603420904     0.5982903985
Bq        -1.3364444768     3.9112072396    -0.3899557474
Bq        -1.4088242420     3.9357746650     0.1041673256
Bq        -1.4225880611     4.0405673655     0.1981303354
Bq        -1.3936361550     4.0307403953     0.0004811062
Bq        -1.4370640142     4.0454808505     0.2969549500
Bq        -1.3791602020     4.0258269102    -0.0983435084
Bq        -1.4515399672     4.0503943356     0.3957795645
Bq        -1.3646842490     4.0209134251    -0.1971681230
Bq        -1.4660159203     4.0553078207     0.4946041791
Bq        -1.3502082959     4.0159999400    -0.2959927375
Bq        -1.4804918733     4.0602213058     0.5934287937
Bq        -1.3357323429     4.0110864550    -0.3948173521
Bq        -1.4081121081     4.0356538804     0.0993057208
Bq        -1.4218759272     4.1404465808     0.1932687306
Bq        -1.3929240211     4.1306196107    -0.0043804986
Bq        -1.4363518802     4.1453600659     0.2920933452
Bq        -1.3784480681     4.1257061256    -0.1032051131
Bq        -1.4508278333     4.1502735510     0.3909179598
Bq        -1.3639721150     4.1207926405    -0.2020297277
Bq        -1.4653037863     4.1551870361     0.4897425744
Bq        -1.3494961620     4.1158791554    -0.3008543423
Bq        -1.4797797394     4.1601005212     0.5885671889
Bq        -1.3350202089     4.1109656703    -0.3996789569
Bq        -1.4073999741     4.1355330958     0.0944441160
Bq        -1.4211637932     4.2403257962     0.1884071258
Bq        -1.3922118872     4.2304988260    -0.0092421033
Bq        -1.4356397463     4.2452392813     0.2872317404
Bq        -1.3777359341     4.2255853410    -0.1080667179
Bq        -1.4501156993     4.2501527664     0.3860563550
Bq        -1.3632599811     4.2206718559    -0.2068913325
Bq        -1.4645916524     4.2550662515     0.4848809696
Bq        -1.3487840280     4.2157583708    -0.3057159471
Bq        -1.4790676054     4.2599797365     0.5837055842
Bq        -1.3343080750     4.2108448857    -0.4045405617
Bq        -1.4066878402     4.2354123111     0.0895825113
Bq        -1.4204516593     4.3402050116     0.1835455211
Bq        -1.3914997532     4.3303780414    -0.0141037081
Bq        -1.4349276124     4.3451184967     0.2823701357
Bq        -1.3770238002     4.3254645563    -0.1129283227
Bq        -1.4494035654     4.3500319818     0.3811947502
Bq        -1.3625478471     4.3205510713    -0.2117529373
Bq        -1.4638795184     4.3549454668     0.4800193648
Bq        -1.3480718941     4.3156375862    -0.3105775518
Bq        -1.4783554715     4.3598589519     0.5788439794
Bq        -1.3335959410     4.3107241011    -0.4094021664
Bq        -1.4059757063     4.3352915265     0.0847209065
Bq        -1.3571142325    -0.6537557573     0.4411192183
Bq        -1.3281623264    -0.6635827274     0.2434699891
Bq        -1.3715901856    -0.6488422722     0.5399438329
Bq        -1.3136863734    -0.6684962125     0.1446453746
Bq        -1.3860661386    -0.6439287871     0.6387684475
Bq        -1.2992104203    -0.6734096976     0.0458207600
Bq        -1.4005420917    -0.6390153020     0.7375930621
Bq        -1.2847344673    -0.6783231827    -0.0530038546
Bq        -1.4150180447    -0.6341018169     0.8364176767
Bq        -1.2702585143    -0.6832366678    -0.1518284692
Bq        -1.3426382795    -0.6586692423     0.3422946037
Bq        -1.3564020986    -0.5538765419     0.4362576135
Bq        -1.3274501925    -0.5637035121     0.2386083844
Bq        -1.3708780516    -0.5489630568     0.5350822281
Bq        -1.3129742394    -0.5686169971     0.1397837698
Bq        -1.3853540047    -0.5440495717     0.6339068427
Bq        -1.2984982864    -0.5735304822     0.0409591552
Bq        -1.3998299577    -0.5391360866     0.7327314573
Bq        -1.2840223334    -0.5784439673    -0.0578654594
Bq        -1.4143059108    -0.5342226016     0.8315560719
Bq        -1.2695463803    -0.5833574524    -0.1566900740
Bq        -1.3419261455    -0.5587900270     0.3374329990
Bq        -1.3556899646    -0.4539973265     0.4313960088
Bq        -1.3267380585    -0.4638242967     0.2337467796
Bq        -1.3701659177    -0.4490838414     0.5302206234
Bq        -1.3122621055    -0.4687377818     0.1349221650
Bq        -1.3846418707    -0.4441703563     0.6290452380
Bq        -1.2977861525    -0.4736512668     0.0360975504
Bq        -1.3991178238    -0.4392568713     0.7278698525
Bq        -1.2833101994    -0.4785647519    -0.0627270641
Bq        -1.4135937768    -0.4343433862     0.8266944671
Bq        -1.2688342464    -0.4834782370    -0.1615516787
Bq        -1.3412140116    -0.4589108116     0.3325713942
Bq        -1.3549778307    -0.3541181111     0.4265344040
Bq        -1.3260259246    -0.3639450813     0.2288851748
Bq        -1.3694537837    -0.3492046261     0.5253590186
Bq        -1.3115499716    -0.3688585664     0.1300605603
Bq        -1.3839297368    -0.3442911410     0.6241836332
Bq        -1.2970740185    -0.3737720515     0.0312359457
Bq        -1.3984056898    -0.3393776559     0.7230082478
Bq        -1.2825980655    -0.3786855365    -0.0675886689
Bq        -1.4128816429    -0.3344641708     0.8218328624
Bq        -1.2681221124    -0.3835990216    -0.1664132835
Bq        -1.3405018777    -0.3590315962     0.3277097894
Bq        -1.3542656968    -0.2542388958     0.4216727992
Bq        -1.3253137907    -0.2640658659     0.2240235701
Bq        -1.3687416498    -0.2493254107     0.5204974138
Bq        -1.3108378376    -0.2689793510     0.1251989555
Bq        -1.3832176028    -0.2444119256     0.6193220284
Bq        -1.2963618846    -0.2738928361     0.0263743409
Bq        -1.3976935559    -0.2394984405     0.7181466430
Bq        -1.2818859315    -0.2788063212    -0.0724502737
Bq        -1.4121695089    -0.2345849554     0.8169712576
Bq        -1.2674099785    -0.2837198063    -0.1712748883
Bq        -1.3397897437    -0.2591523808     0.3228481847
Bq        -1.3535535628    -0.1543596804     0.4168111945
Bq        -1.3246016567    -0.1641866505     0.2191619653
Bq        -1.3680295159    -0.1494461953     0.5156358091
Bq        -1.3101257037    -0.1691001356     0.1203373507
Bq        -1.3825054689    -0.1445327102     0.6144604237
Bq        -1.2956497506    -0.1740136207     0.0215127361
Bq        -1.3969814219    -0.1396192251     0.7132850382
Bq        -1.2811737976    -0.1789271058    -0.0773118784
Bq        -1.4114573750    -0.1347057400     0.8121096528
Bq        -1.2666978445    -0.1838405909    -0.1761364930
Bq        -1.3390776098    -0.1592731655     0.3179865799
Bq        -1.3528414289    -0.0544804650     0.4119495897
Bq        -1.3238895228    -0.0643074352     0.2143003605
Bq        -1.3673173819    -0.0495669799     0.5107742043
Bq        -1.3094135697    -0.0692209203     0.1154757460
Bq        -1.3817933350    -0.0446534948     0.6095988189
Bq        -1.2949376167    -0.0741344053     0.0166511314
Bq        -1.3962692880    -0.0397400098     0.7084234335
Bq        -1.2804616636    -0.0790478904    -0.0821734832
Bq        -1.4107452410    -0.0348265247     0.8072480481
Bq        -1.2659857106    -0.0839613755    -0.1809980978
Bq        -1.3383654758    -0.0593939501     0.3131249751

1
2
3
4
5
6
7
8
9
10
11
12
13
14
15
16
17
18
19
20
21
22
23
24
25
26
27
28
29
30
31
32
33
34
35
36
37
38
39
40
41
42
43
44
45
46
47
48
49
50
51
52
53
54
55
56
57
58
59
60
61
62
63
64
65
66
67
68
69
70
71
72
73
74
75
76
77
78
79
80
81
82
83
84
85
86
87
88
89
90
91
92
93
94
95
96
97
98
99
100
101
102
103
104
105
106
107
108
109
110
111
112
113
114
115
116
117
118
119
120
121
122
123
124
125
126
127
128
129
130
131
132
133
134
135
136
137
138
139
140
141
142
143
144
145
146
147
148
149
150
151
152
153
154
155
156
157
158
159
160
161
162
163
164
165
166
167
168
169
170
171
172
173
174
175
176
177
178
179
180
181
182
183
184
185
186
187
188
189
190
191
192
193
194
195
196
197
198
199
200
201
202
203
204
205
206
207
208
209
210
211
212
213
214
215
216
217
218
219
220
221
222
223
224
225
226
227
228
229
230
231
232
233
234
235
236

