%nproc=8
%mem=1000MB
# rb3lyp/6-311+g** NMR geom=connectivity

Title

0 1
C    -4.0500558   -0.5771862    0.8136712
H    -5.0263804   -1.0082727    1.0024760
C    -3.9381552    0.6617804    0.2400876
H    -4.8252424    1.2338890   -0.0111295
C    -2.6768410    1.2433246    0.0057578
C    -1.4974121    0.5051527    0.2848253
C    -1.6508332   -0.7338728    0.9404026
H    -0.7713646   -1.2730967    1.2633753
C    -2.8898548   -1.2624035    1.1994307
H    -2.9683706   -2.2124563    1.7152676
C    -2.5773185    2.5963696   -0.4192930
H    -3.4870728    3.1412239   -0.6474055
C    -1.3741895    3.2147896   -0.4364030
H    -1.2997315    4.2742019   -0.6578144
C    -0.1719488    2.4994090   -0.1734588
C    -0.2043917    1.1018437    0.0192689
C     1.0513491    3.2042560   -0.0676222
H     1.0427344    4.2819499   -0.1896997
C     2.1942091    2.5487446    0.2579577
H     3.1168527    3.0912848    0.4334727
C     2.2216473    1.1336562    0.2934990
C     1.0486931    0.3945528    0.0302412
C     3.4483363    0.4614633    0.5573939
H     4.3095794    1.0606054    0.8334846
C     3.5427346   -0.8855926    0.4749463
H     4.4731467   -1.3939704    0.7038822
C     2.4490052   -1.6474447   -0.0196319
C     1.2150704   -1.0057258   -0.3013573
C     0.2531113   -1.7434440   -1.0216591
H    -0.6541356   -1.2535051   -1.3462847
C     0.4494193   -3.0628597   -1.3413779
H    -0.3083162   -3.5944309   -1.9054060
C     1.6251726   -3.7207967   -0.9552541
H     1.7670048   -4.7687404   -1.1927019
C     2.6109872   -3.0144177   -0.3183050
H     3.5525612   -3.4902813   -0.0646367
Bq        -2.0085625483     4.2849014360    -0.3449294171
Bq        -2.0200884922     4.3585493882    -0.0543384128
Bq        -2.0047205669     4.2603521187    -0.4417930852
Bq        -2.0239304736     4.3830987055     0.0425252553
Bq        -2.0008785856     4.2358028013    -0.5386567533
Bq        -2.0277724549     4.4076480229     0.1393889234
Bq        -1.9970366043     4.2112534839    -0.6355204213
Bq        -2.0316144362     4.4321973403     0.2362525915
Bq        -1.9931946229     4.1867041665    -0.7323840894
Bq        -2.0124045296     4.3094507534    -0.2480657490
Bq        -2.0152735567     4.4309399027    -0.1757321103
Bq        -2.0075895940     4.3818412680    -0.3694594465
Bq        -2.0191155380     4.4554892201    -0.0788684422
Bq        -2.0037476127     4.3572919506    -0.4663231146
Bq        -2.0229575194     4.4800385375     0.0179952259
Bq        -1.9999056314     4.3327426332    -0.5631867827
Bq        -2.0267995007     4.5045878549     0.1148588939
Bq        -1.9960636500     4.3081933159    -0.6600504508
Bq        -2.0306414820     4.5291371722     0.2117225620
Bq        -1.9922216687     4.2836439985    -0.7569141189
Bq        -2.0114315754     4.4063905854    -0.2725957784
Bq        -1.9639998361    -0.4160516942     1.0547326249
Bq        -1.9563158734    -0.4651503290     0.8610052887
Bq        -1.9678418174    -0.3915023768     1.1515962930
Bq        -1.9524738921    -0.4896996464     0.7641416206
Bq        -1.9716837987    -0.3669530595     1.2484599611
Bq        -1.9486319108    -0.5142489637     0.6672779525
Bq        -1.9755257801    -0.3424037421     1.3453236292
Bq        -1.9447899294    -0.5387982811     0.5704142844
Bq        -1.9793677614    -0.3178544247     1.4421872973
Bq        -1.9409479481    -0.5633475985     0.4735506164
Bq        -1.9601578548    -0.4406010116     0.9578689568
Bq        -1.9630268819    -0.3191118623     1.0302025955
Bq        -1.9553429192    -0.3682104970     0.8364752593
Bq        -1.9668688632    -0.2945625449     1.1270662636
Bq        -1.9515009379    -0.3927598144     0.7396115912
Bq        -1.9707108445    -0.2700132275     1.2239299317
Bq        -1.9476589565    -0.4173091318     0.6427479231
Bq        -1.9745528258    -0.2454639102     1.3207935997
Bq        -1.9438169752    -0.4418584492     0.5458842550
Bq        -1.9783948072    -0.2209145928     1.4176572678
Bq        -1.9399749939    -0.4664077665     0.4490205869
Bq        -1.9591849005    -0.3436611797     0.9333389274
Bq        -1.9620539276    -0.2221720303     1.0056725660
Bq        -1.9543699650    -0.2712706651     0.8119452299
Bq        -1.9658959090    -0.1976227130     1.1025362341
Bq        -1.9505279836    -0.2958199825     0.7150815618
Bq        -1.9697378903    -0.1730733956     1.1993999022
Bq        -1.9466860023    -0.3203692998     0.6182178937
Bq        -1.9735798716    -0.1485240782     1.2962635703
Bq        -1.9428440210    -0.3449186172     0.5213542256
Bq        -1.9774218530    -0.1239747608     1.3931272384
Bq        -1.9390020397    -0.3694679346     0.4244905575
Bq        -1.9582119463    -0.2467213477     0.9088088980
Bq        -1.9610809734    -0.1252321984     0.9811425366
Bq        -1.9533970108    -0.1743308332     0.7874152004
Bq        -1.9649229547    -0.1006828810     1.0780062047
Bq        -1.9495550294    -0.1988801505     0.6905515323
Bq        -1.9687649361    -0.0761335637     1.1748698728
Bq        -1.9457130481    -0.2234294679     0.5936878643
Bq        -1.9726069174    -0.0515842463     1.2717335409
Bq        -1.9418710668    -0.2479787853     0.4968241962
Bq        -1.9764488987    -0.0270349289     1.3685972090
Bq        -1.9380290854    -0.2725281027     0.3999605281
Bq        -1.9572389921    -0.1497815158     0.8842788685
Bq        -1.9601080192    -0.0282923665     0.9566125072
Bq        -1.9524240565    -0.0773910012     0.7628851710
Bq        -1.9639500005    -0.0037430491     1.0534761753
Bq        -1.9485820752    -0.1019403186     0.6660215029
Bq        -1.9677919818     0.0208062683     1.1503398434
Bq        -1.9447400939    -0.1264896360     0.5691578348
Bq        -1.9716339632     0.0453555857     1.2472035115
Bq        -1.9408981125    -0.1510389533     0.4722941667
Bq        -1.9754759445     0.0699049030     1.3440671795
Bq        -1.9370561312    -0.1755882707     0.3754304986
Bq        -1.9562660379    -0.0528416838     0.8597488391
Bq        -1.9591350650     0.0686474655     0.9320824778
Bq        -1.9514511023     0.0195488307     0.7383551416
Bq        -1.9629770463     0.0931967828     1.0289461459
Bq        -1.9476091210    -0.0050004867     0.6414914735
Bq        -1.9668190276     0.1177461002     1.1258098139
Bq        -1.9437671396    -0.0295498040     0.5446278054
Bq        -1.9706610089     0.1422954176     1.2226734820
Bq        -1.9399251583    -0.0540991214     0.4477641373
Bq        -1.9745029903     0.1668447350     1.3195371501
Bq        -1.9360831770    -0.0786484388     0.3509004692
Bq        -1.9552930836     0.0440981481     0.8352188097
Bq        -1.9581621107     0.1655872974     0.9075524483
Bq        -1.9504781481     0.1164886627     0.7138251122
Bq        -1.9620040921     0.1901366148     1.0044161164
Bq        -1.9466361667     0.0919393453     0.6169614441
Bq        -1.9658460734     0.2146859322     1.1012797845
Bq        -1.9427941854     0.0673900279     0.5200977760
Bq        -1.9696880547     0.2392352495     1.1981434526
Bq        -1.9389522041     0.0428407105     0.4232341079
Bq        -1.9735300361     0.2637845669     1.2950071207
Bq        -1.9351102228     0.0182913932     0.3263704398
Bq        -1.9543201294     0.1410379800     0.8106887802
Bq        -1.9571891565     0.2625271294     0.8830224189
Bq        -1.9495051939     0.2134284946     0.6892950827
Bq        -1.9610311378     0.2870764467     0.9798860870
Bq        -1.9456632125     0.1888791772     0.5924314146
Bq        -1.9648731192     0.3116257641     1.0767497551
Bq        -1.9418212312     0.1643298598     0.4955677465
Bq        -1.9687151005     0.3361750815     1.1736134232
Bq        -1.9379792499     0.1397805425     0.3987040785
Bq        -1.9725570818     0.3607243989     1.2704770913
Bq        -1.9341372685     0.1152312251     0.3018404104
Bq        -1.9533471752     0.2379778120     0.7861587508
Bq        -1.9562162023     0.3594669613     0.8584923895
Bq        -1.9485322396     0.3103683265     0.6647650533
Bq        -1.9600581836     0.3840162787     0.9553560576
Bq        -1.9446902583     0.2858190092     0.5679013852
Bq        -1.9639001649     0.4085655960     1.0522197257
Bq        -1.9408482770     0.2612696918     0.4710377171
Bq        -1.9677421463     0.4331149134     1.1490833938
Bq        -1.9370062956     0.2367203744     0.3741740490
Bq        -1.9715841276     0.4576642308     1.2459470618
Bq        -1.9331643143     0.2121710570     0.2773103809
Bq        -1.9523742210     0.3349176439     0.7616287214
Bq        -1.9552432481     0.4564067932     0.8339623601
Bq        -1.9475592854     0.4073081585     0.6402350239
Bq        -1.9590852294     0.4809561106     0.9308260281
Bq        -1.9437173041     0.3827588411     0.5433713558
Bq        -1.9629272107     0.5055054280     1.0276896962
Bq        -1.9398753227     0.3582095237     0.4465076877
Bq        -1.9667691921     0.5300547454     1.1245533643
Bq        -1.9360333414     0.3336602064     0.3496440196
Bq        -1.9706111734     0.5546040627     1.2214170324
Bq        -1.9321913601     0.3091108890     0.2527803515
Bq        -1.9514012667     0.4318574759     0.7370986920
Bq        -1.9542702938     0.5533466252     0.8094323306
Bq        -1.9465863312     0.5042479904     0.6157049944
Bq        -1.9581122752     0.5778959425     0.9062959987
Bq        -1.9427443499     0.4796986730     0.5188413264
Bq        -1.9619542565     0.6024452599     1.0031596668
Bq        -1.9389023685     0.4551493557     0.4219776583
Bq        -1.9657962378     0.6269945773     1.1000233349
Bq        -1.9350603872     0.4306000383     0.3251139902
Bq        -1.9696382192     0.6515438947     1.1968870030
Bq        -1.9312184059     0.4060507209     0.2282503221
Bq        -1.9504283125     0.5287973078     0.7125686625
Bq        -1.9532973396     0.6502864571     0.7849023012
Bq        -1.9456133770     0.6011878224     0.5911749650
Bq        -1.9571393209     0.6748357745     0.8817659693
Bq        -1.9417713956     0.5766385050     0.4943112969
Bq        -1.9609813023     0.6993850919     0.9786296374
Bq        -1.9379294143     0.5520891876     0.3974476288
Bq        -1.9648232836     0.7239344092     1.0754933055
Bq        -1.9340874330     0.5275398702     0.3005839607
Bq        -1.9686652649     0.7484837266     1.1723569736
Bq        -1.9302454516     0.5029905529     0.2037202927
Bq        -1.9494553583     0.6257371397     0.6880386331
Bq        -1.9523243854     0.7472262890     0.7603722718
Bq        -1.9446404227     0.6981276543     0.5666449356
Bq        -1.9561663667     0.7717756064     0.8572359399
Bq        -1.9407984414     0.6735783369     0.4697812675
Bq        -1.9600083480     0.7963249238     0.9540996080
Bq        -1.9369564601     0.6490290195     0.3729175994
Bq        -1.9638503294     0.8208742412     1.0509632760
Bq        -1.9331144787     0.6244797022     0.2760539313
Bq        -1.9676923107     0.8454235585     1.1478269441
Bq        -1.9292724974     0.5999303848     0.1791902632
Bq        -1.9484824041     0.7226769717     0.6635086037
Bq        -1.9513514312     0.8441661210     0.7358422423
Bq        -1.9436674685     0.7950674862     0.5421149062
Bq        -1.9551934125     0.8687154384     0.8327059104
Bq        -1.9398254872     0.7705181689     0.4452512381
Bq        -1.9590353938     0.8932647557     0.9295695785
Bq        -1.9359835058     0.7459688515     0.3483875700
Bq        -1.9628773752     0.9178140731     1.0264332466
Bq        -1.9321415245     0.7214195341     0.2515239019
Bq        -1.9667193565     0.9423633905     1.1232969147
Bq        -1.9282995432     0.6968702167     0.1546602338
Bq        -1.9475094498     0.8196168036     0.6389785743
Bq        -1.9503784769     0.9411059529     0.7113122129
Bq        -1.9426945143     0.8920073182     0.5175848767
Bq        -1.9542204583     0.9656552703     0.8081758810
Bq        -1.9388525330     0.8674580008     0.4207212086
Bq        -1.9580624396     0.9902045877     0.9050395491
Bq        -1.9350105516     0.8429086834     0.3238575406
Bq        -1.9619044209     1.0147539051     1.0019032172
Bq        -1.9311685703     0.8183593660     0.2269938725
Bq        -1.9657464023     1.0393032224     1.0987668853
Bq        -1.9273265890     0.7938100487     0.1301302044
Bq        -1.9465364956     0.9165566355     0.6144485448
Bq        -1.9494055227     1.0380457849     0.6867821835
Bq        -1.9417215601     0.9889471501     0.4930548473
Bq        -1.9532475040     1.0625951022     0.7836458516
Bq        -1.9378795787     0.9643978327     0.3961911792
Bq        -1.9570894854     1.0871444196     0.8805095197
Bq        -1.9340375974     0.9398485154     0.2993275111
Bq        -1.9609314667     1.1116937370     0.9773731878
Bq        -1.9301956161     0.9152991980     0.2024638430
Bq        -1.9647734480     1.1362430544     1.0742368559
Bq        -1.9263536347     0.8907498806     0.1056001750
Bq        -1.9455635414     1.0134964675     0.5899185154
Bq        -1.9484325685     1.1349856168     0.6622521541
Bq        -1.9407486058     1.0858869821     0.4685248179
Bq        -1.9522745498     1.1595349342     0.7591158222

1
2
3
4
5
6
7
8
9
10
11
12
13
14
15
16
17
18
19
20
21
22
23
24
25
26
27
28
29
30
31
32
33
34
35
36
37
38
39
40
41
42
43
44
45
46
47
48
49
50
51
52
53
54
55
56
57
58
59
60
61
62
63
64
65
66
67
68
69
70
71
72
73
74
75
76
77
78
79
80
81
82
83
84
85
86
87
88
89
90
91
92
93
94
95
96
97
98
99
100
101
102
103
104
105
106
107
108
109
110
111
112
113
114
115
116
117
118
119
120
121
122
123
124
125
126
127
128
129
130
131
132
133
134
135
136
137
138
139
140
141
142
143
144
145
146
147
148
149
150
151
152
153
154
155
156
157
158
159
160
161
162
163
164
165
166
167
168
169
170
171
172
173
174
175
176
177
178
179
180
181
182
183
184
185
186
187
188
189
190
191
192
193
194
195
196
197
198
199
200
201
202
203
204
205
206
207
208
209
210
211
212
213
214
215
216
217
218
219
220
221
222
223
224
225
226
227
228
229
230
231
232
233
234
235
236

