%nproc=8
%mem=1000MB
# rb3lyp/6-311+g** NMR geom=connectivity

Title

0 1
C    -4.0500558   -0.5771862    0.8136712
H    -5.0263804   -1.0082727    1.0024760
C    -3.9381552    0.6617804    0.2400876
H    -4.8252424    1.2338890   -0.0111295
C    -2.6768410    1.2433246    0.0057578
C    -1.4974121    0.5051527    0.2848253
C    -1.6508332   -0.7338728    0.9404026
H    -0.7713646   -1.2730967    1.2633753
C    -2.8898548   -1.2624035    1.1994307
H    -2.9683706   -2.2124563    1.7152676
C    -2.5773185    2.5963696   -0.4192930
H    -3.4870728    3.1412239   -0.6474055
C    -1.3741895    3.2147896   -0.4364030
H    -1.2997315    4.2742019   -0.6578144
C    -0.1719488    2.4994090   -0.1734588
C    -0.2043917    1.1018437    0.0192689
C     1.0513491    3.2042560   -0.0676222
H     1.0427344    4.2819499   -0.1896997
C     2.1942091    2.5487446    0.2579577
H     3.1168527    3.0912848    0.4334727
C     2.2216473    1.1336562    0.2934990
C     1.0486931    0.3945528    0.0302412
C     3.4483363    0.4614633    0.5573939
H     4.3095794    1.0606054    0.8334846
C     3.5427346   -0.8855926    0.4749463
H     4.4731467   -1.3939704    0.7038822
C     2.4490052   -1.6474447   -0.0196319
C     1.2150704   -1.0057258   -0.3013573
C     0.2531113   -1.7434440   -1.0216591
H    -0.6541356   -1.2535051   -1.3462847
C     0.4494193   -3.0628597   -1.3413779
H    -0.3083162   -3.5944309   -1.9054060
C     1.6251726   -3.7207967   -0.9552541
H     1.7670048   -4.7687404   -1.1927019
C     2.6109872   -3.0144177   -0.3183050
H     3.5525612   -3.4902813   -0.0646367
Bq        -4.1833957244     1.3608808897     0.4601749425
Bq        -4.1835787877     1.4944149994     0.5067432583
Bq        -4.1828707966     1.4074495654     0.3266418646
Bq        -4.1839327833     1.5378977164     0.5967939552
Bq        -4.1825168010     1.3639668484     0.2365911677
Bq        -4.1842867789     1.5813804334     0.6868446521
Bq        -4.1821628054     1.3204841314     0.1465404708
Bq        -4.1846407745     1.6248631504     0.7768953490
Bq        -4.1818088099     1.2770014144     0.0564897739
Bq        -4.1849947700     1.6683458674     0.8669460458
Bq        -4.1814548143     1.2335186974    -0.0335609230
Bq        -4.1832247922     1.4509322824     0.4166925614
Bq        -4.1834078555     1.5844663921     0.4632608773
Bq        -4.1826998643     1.4975009581     0.2831594835
Bq        -4.1837618510     1.6279491091     0.5533115742
Bq        -4.1823458687     1.4540182411     0.1931087866
Bq        -4.1841158466     1.6714318261     0.6433622710
Bq        -4.1819918732     1.4105355241     0.1030580898
Bq        -4.1844698422     1.7149145431     0.7334129679
Bq        -4.1816378776     1.3670528071     0.0130073929
Bq        -4.1848238378     1.7583972601     0.8234636648
Bq        -4.1812838820     1.3235700901    -0.0770433040
Bq        -4.1830538599     1.5409836751     0.3732101804
Bq        -4.1832369232     1.6745177848     0.4197784963
Bq        -4.1825289320     1.5875523507     0.2396771025
Bq        -4.1835909188     1.7180005018     0.5098291931
Bq        -4.1821749365     1.5440696337     0.1496264056
Bq        -4.1839449143     1.7614832188     0.5998798900
Bq        -4.1818209409     1.5005869167     0.0595757087
Bq        -4.1842989099     1.8049659358     0.6899305869
Bq        -4.1814669453     1.4571041997    -0.0304749882
Bq        -4.1846529055     1.8484486528     0.7799812838
Bq        -4.1811129497     1.4136214827    -0.1205256850
Bq        -4.1828829276     1.6310350678     0.3297277994
Bq        -4.1830659909     1.7645691774     0.3762961152
Bq        -4.1823579998     1.6776037434     0.1961947215
Bq        -4.1834199865     1.8080518944     0.4663468121
Bq        -4.1820040042     1.6341210264     0.1061440246
Bq        -4.1837739821     1.8515346114     0.5563975090
Bq        -4.1816500086     1.5906383094     0.0160933277
Bq        -4.1841279776     1.8950173284     0.6464482059
Bq        -4.1812960130     1.5471555924    -0.0739573692
Bq        -4.1844819732     1.9385000454     0.7364989027
Bq        -4.1809420175     1.5036728754    -0.1640080661
Bq        -4.1827119953     1.7210864604     0.2862454183
Bq        -4.1828950586     1.8546205701     0.3328137342
Bq        -4.1821870675     1.7676551361     0.1527123404
Bq        -4.1832490542     1.8981032871     0.4228644311
Bq        -4.1818330719     1.7241724191     0.0626616435
Bq        -4.1836030498     1.9415860041     0.5129151280
Bq        -4.1814790763     1.6806897021    -0.0273890533
Bq        -4.1839570454     1.9850687211     0.6029658248
Bq        -4.1811250808     1.6372069851    -0.1174397502
Bq        -4.1843110409     2.0285514381     0.6930165217
Bq        -4.1807710852     1.5937242681    -0.2074904471
Bq        -4.1825410631     1.8111378531     0.2427630373
Bq        -4.1827241264     1.9446719628     0.2893313532
Bq        -4.1820161352     1.8577065288     0.1092299594
Bq        -4.1830781219     1.9881546798     0.3793820500
Bq        -4.1816621396     1.8142238118     0.0191792625
Bq        -4.1834321175     2.0316373968     0.4694327469
Bq        -4.1813081441     1.7707410947    -0.0708714344
Bq        -4.1837861131     2.0751201138     0.5594834438
Bq        -4.1809541485     1.7272583777    -0.1609221313
Bq        -4.1841401087     2.1186028308     0.6495341407
Bq        -4.1806001529     1.6837756607    -0.2509728281
Bq        -4.1823701308     1.9011892458     0.1992806563
Bq        -4.1825531941     2.0347233554     0.2458489721
Bq        -4.1818452029     1.9477579214     0.0657475784
Bq        -4.1829071897     2.0782060724     0.3358996690
Bq        -4.1814912074     1.9042752044    -0.0243031185
Bq        -4.1832611852     2.1216887894     0.4259503659
Bq        -4.1811372118     1.8607924874    -0.1143538154
Bq        -4.1836151808     2.1651715065     0.5160010628
Bq        -4.1807832162     1.8173097704    -0.2044045123
Bq        -4.1839691764     2.2086542235     0.6060517597
Bq        -4.1804292206     1.7738270534    -0.2944552092
Bq        -4.1821991985     1.9912406384     0.1557982752
Bq        -4.1823822618     2.1247747481     0.2023665911
Bq        -4.1816742707     2.0378093141     0.0222651973
Bq        -4.1827362574     2.1682574651     0.2924172880
Bq        -4.1813202751     1.9943265971    -0.0677854996
Bq        -4.1830902530     2.2117401821     0.3824679849
Bq        -4.1809662795     1.9508438801    -0.1578361964
Bq        -4.1834442485     2.2552228991     0.4725186817
Bq        -4.1806122839     1.9073611631    -0.2478868933
Bq        -4.1837982441     2.2987056161     0.5625693786
Bq        -4.1802582884     1.8638784461    -0.3379375902
Bq        -4.1820282662     2.0812920311     0.1123158942
Bq        -4.1822113295     2.2148261408     0.1588842101
Bq        -4.1815033384     2.1278607068    -0.0212171837
Bq        -4.1825653251     2.2583088578     0.2489349069
Bq        -4.1811493428     2.0843779898    -0.1112678806
Bq        -4.1829193207     2.3017915748     0.3389856038
Bq        -4.1807953472     2.0408952728    -0.2013185775
Bq        -4.1832733163     2.3452742918     0.4290363007
Bq        -4.1804413517     1.9974125558    -0.2913692744
Bq        -4.1836273118     2.3887570088     0.5190869976
Bq        -4.1800873561     1.9539298388    -0.3814199712
Bq        -4.1818573340     2.1713434238     0.0688335132
Bq        -4.1820403973     2.3048775334     0.1154018290
Bq        -4.1813324061     2.2179120994    -0.0646995647
Bq        -4.1823943928     2.3483602505     0.2054525259
Bq        -4.1809784105     2.1744293824    -0.1547502616
Bq        -4.1827483884     2.3918429675     0.2955032228
Bq        -4.1806244150     2.1309466654    -0.2448009585
Bq        -4.1831023840     2.4353256845     0.3855539197
Bq        -4.1802704194     2.0874639484    -0.3348516554
Bq        -4.1834563796     2.4788084015     0.4756046166
Bq        -4.1799164238     2.0439812314    -0.4249023523
Bq        -4.1816864017     2.2613948164     0.0253511321
Bq        -4.1818694650     2.3949289261     0.0719194480
Bq        -4.1811614738     2.3079634921    -0.1081819458
Bq        -4.1822234606     2.4384116431     0.1619701449
Bq        -4.1808074783     2.2644807751    -0.1982326427
Bq        -4.1825774561     2.4818943601     0.2520208418
Bq        -4.1804534827     2.2209980581    -0.2882833395
Bq        -4.1829314517     2.5253770771     0.3420715386
Bq        -4.1800994871     2.1775153411    -0.3783340364
Bq        -4.1832854473     2.5688597941     0.4321222355
Bq        -4.1797454915     2.1340326241    -0.4683847333
Bq        -4.1815154694     2.3514462091    -0.0181312489
Bq        -4.1816985327     2.4849803188     0.0284370670
Bq        -4.1809905416     2.3980148848    -0.1516643268
Bq        -4.1820525283     2.5284630358     0.1184877638
Bq        -4.1806365460     2.3545321678    -0.2417150237
Bq        -4.1824065239     2.5719457528     0.2085384607
Bq        -4.1802825504     2.3110494508    -0.3317657206
Bq        -4.1827605194     2.6154284698     0.2985891576
Bq        -4.1799285548     2.2675667338    -0.4218164175
Bq        -4.1831145150     2.6589111868     0.3886398545
Bq        -4.1795745593     2.2240840168    -0.5118671143
Bq        -4.1813445371     2.4414976018    -0.0616136299
Bq        -4.0902459191    -2.0175893147     2.2029492225
Bq        -4.0895379280    -2.1045547487     2.0228478288
Bq        -4.0905999147    -1.9741065977     2.2929999194
Bq        -4.0891839324    -2.1480374658     1.9327971319
Bq        -4.0909539103    -1.9306238807     2.3830506163
Bq        -4.0888299368    -2.1915201828     1.8427464350
Bq        -4.0913079058    -1.8871411637     2.4731013132
Bq        -4.0884759412    -2.2350028998     1.7526957381
Bq        -4.0916619014    -1.8436584467     2.5631520101
Bq        -4.0881219457    -2.2784856168     1.6626450412
Bq        -4.0898919235    -2.0610720317     2.1128985256
Bq        -4.0900749868    -1.9275379221     2.1594668415
Bq        -4.0893669957    -2.0145033561     1.9793654477
Bq        -4.0904289824    -1.8840552051     2.2495175384
Bq        -4.0890130001    -2.0579860731     1.8893147508
Bq        -4.0907829780    -1.8405724881     2.3395682353
Bq        -4.0886590045    -2.1014687901     1.7992640540
Bq        -4.0911369736    -1.7970897711     2.4296189321
Bq        -4.0883050090    -2.1449515071     1.7092133571
Bq        -4.0914909691    -1.7536070540     2.5196696290
Bq        -4.0879510134    -2.1884342241     1.6191626602
Bq        -4.0897209913    -1.9710206391     2.0694161446
Bq        -4.0899040546    -1.8374865294     2.1159844605
Bq        -4.0891960634    -1.9244519634     1.9358830667
Bq        -4.0902580501    -1.7940038124     2.2060351573
Bq        -4.0888420678    -1.9679346804     1.8458323698
Bq        -4.0906120457    -1.7505210954     2.2960858542
Bq        -4.0884880723    -2.0114173974     1.7557816729
Bq        -4.0909660413    -1.7070383784     2.3861365511
Bq        -4.0881340767    -2.0549001144     1.6657309760
Bq        -4.0913200369    -1.6635556614     2.4761872480
Bq        -4.0877800811    -2.0983828314     1.5756802792
Bq        -4.0895500590    -1.8809692464     2.0259337636
Bq        -4.0897331223    -1.7474351367     2.0725020794
Bq        -4.0890251311    -1.8344005707     1.8924006857
Bq        -4.0900871179    -1.7039524197     2.1625527763
Bq        -4.0886711356    -1.8778832877     1.8023499888
Bq        -4.0904411134    -1.6604697027     2.2526034732
Bq        -4.0883171400    -1.9213660047     1.7122992919
Bq        -4.0907951090    -1.6169869857     2.3426541701
Bq        -4.0879631444    -1.9648487217     1.6222485950
Bq        -4.0911491046    -1.5735042687     2.4327048670
Bq        -4.0876091488    -2.0083314388     1.5321978981
Bq        -4.0893791267    -1.7909178537     1.9824513825
Bq        -4.0895621900    -1.6573837441     2.0290196984
Bq        -4.0888541989    -1.7443491781     1.8489183046
Bq        -4.0899161856    -1.6139010270     2.1190703953
Bq        -4.0885002033    -1.7878318951     1.7588676077
Bq        -4.0902701812    -1.5704183100     2.2091210922
Bq        -4.0881462077    -1.8313146121     1.6688169109
Bq        -4.0906241767    -1.5269355930     2.2991717890
Bq        -4.0877922121    -1.8747973291     1.5787662140
Bq        -4.0909781723    -1.4834528760     2.3892224859
Bq        -4.0874382166    -1.9182800461     1.4887155171
Bq        -4.0892081944    -1.7008664611     1.9389690015
Bq        -4.0893912577    -1.5673323514     1.9855373174
Bq        -4.0886832666    -1.6542977854     1.8054359236
Bq        -4.0897452533    -1.5238496344     2.0755880142
Bq        -4.0883292710    -1.6977805024     1.7153852267
Bq        -4.0900992489    -1.4803669174     2.1656387111
Bq        -4.0879752754    -1.7412632194     1.6253345298
Bq        -4.0904532445    -1.4368842004     2.2556894080
Bq        -4.0876212799    -1.7847459364     1.5352838329
Bq        -4.0908072400    -1.3934014834     2.3457401049
Bq        -4.0872672843    -1.8282286534     1.4452331361
Bq        -4.0890372622    -1.6108150684     1.8954866205
Bq        -4.0892203255    -1.4772809587     1.9420549363

1
2
3
4
5
6
7
8
9
10
11
12
13
14
15
16
17
18
19
20
21
22
23
24
25
26
27
28
29
30
31
32
33
34
35
36
37
38
39
40
41
42
43
44
45
46
47
48
49
50
51
52
53
54
55
56
57
58
59
60
61
62
63
64
65
66
67
68
69
70
71
72
73
74
75
76
77
78
79
80
81
82
83
84
85
86
87
88
89
90
91
92
93
94
95
96
97
98
99
100
101
102
103
104
105
106
107
108
109
110
111
112
113
114
115
116
117
118
119
120
121
122
123
124
125
126
127
128
129
130
131
132
133
134
135
136
137
138
139
140
141
142
143
144
145
146
147
148
149
150
151
152
153
154
155
156
157
158
159
160
161
162
163
164
165
166
167
168
169
170
171
172
173
174
175
176
177
178
179
180
181
182
183
184
185
186
187
188
189
190
191
192
193
194
195
196
197
198
199
200
201
202
203
204
205
206
207
208
209
210
211
212
213
214
215
216
217
218
219
220
221
222
223
224
225
226
227
228
229
230
231
232
233
234
235
236

