%nproc=8
%mem=1000MB
# rb3lyp/6-311+g** NMR geom=connectivity

Title

0 1
C    -4.0500558   -0.5771862    0.8136712
H    -5.0263804   -1.0082727    1.0024760
C    -3.9381552    0.6617804    0.2400876
H    -4.8252424    1.2338890   -0.0111295
C    -2.6768410    1.2433246    0.0057578
C    -1.4974121    0.5051527    0.2848253
C    -1.6508332   -0.7338728    0.9404026
H    -0.7713646   -1.2730967    1.2633753
C    -2.8898548   -1.2624035    1.1994307
H    -2.9683706   -2.2124563    1.7152676
C    -2.5773185    2.5963696   -0.4192930
H    -3.4870728    3.1412239   -0.6474055
C    -1.3741895    3.2147896   -0.4364030
H    -1.2997315    4.2742019   -0.6578144
C    -0.1719488    2.4994090   -0.1734588
C    -0.2043917    1.1018437    0.0192689
C     1.0513491    3.2042560   -0.0676222
H     1.0427344    4.2819499   -0.1896997
C     2.1942091    2.5487446    0.2579577
H     3.1168527    3.0912848    0.4334727
C     2.2216473    1.1336562    0.2934990
C     1.0486931    0.3945528    0.0302412
C     3.4483363    0.4614633    0.5573939
H     4.3095794    1.0606054    0.8334846
C     3.5427346   -0.8855926    0.4749463
H     4.4731467   -1.3939704    0.7038822
C     2.4490052   -1.6474447   -0.0196319
C     1.2150704   -1.0057258   -0.3013573
C     0.2531113   -1.7434440   -1.0216591
H    -0.6541356   -1.2535051   -1.3462847
C     0.4494193   -3.0628597   -1.3413779
H    -0.3083162   -3.5944309   -1.9054060
C     1.6251726   -3.7207967   -0.9552541
H     1.7670048   -4.7687404   -1.1927019
C     2.6109872   -3.0144177   -0.3183050
H     3.5525612   -3.4902813   -0.0646367
Bq         2.0967842243    -1.7011001761     0.2988612288
Bq         1.9771989330    -1.7809471294     0.5621554029
Bq         2.1366459881    -1.6744845250     0.2110965041
Bq         1.9373371692    -1.8075627805     0.6499201276
Bq         2.1765077519    -1.6478688739     0.1233317794
Bq         1.8974754054    -1.8341784316     0.7376848524
Bq         2.2163695157    -1.6212532227     0.0355670547
Bq         1.8576136416    -1.8607940827     0.8254495771
Bq         2.2562312795    -1.5946375716    -0.0521976701
Bq         2.0569224606    -1.7277158272     0.3866259535
Bq         2.0060542234    -1.6579384956     0.4986239287
Bq         2.0857777510    -1.6047071934     0.3230944793
Bq         1.9661924596    -1.6845541467     0.5863886534
Bq         2.1256395148    -1.5780915422     0.2353297545
Bq         1.9263306958    -1.7111697978     0.6741533781
Bq         2.1655012785    -1.5514758911     0.1475650298
Bq         1.8864689320    -1.7377854489     0.7619181028
Bq         2.2053630423    -1.5248602400     0.0598003051
Bq         1.8466071682    -1.7644011000     0.8496828275
Bq         2.2452248061    -1.4982445889    -0.0279644196
Bq         2.0459159872    -1.6313228445     0.4108592040
Bq         1.9950477500    -1.5615455129     0.5228571791
Bq         2.0747712776    -1.5083142106     0.3473277297
Bq         1.9551859862    -1.5881611640     0.6106219039
Bq         2.1146330414    -1.4816985595     0.2595630050
Bq         1.9153242224    -1.6147768151     0.6983866286
Bq         2.1544948052    -1.4550829084     0.1717982803
Bq         1.8754624587    -1.6413924662     0.7861513533
Bq         2.1943565690    -1.4284672573     0.0840335556
Bq         1.8356006949    -1.6680081173     0.8739160780
Bq         2.2342183327    -1.4018516062    -0.0037311691
Bq         2.0349095138    -1.5349298617     0.4350924544
Bq         1.9840412767    -1.4651525301     0.5470904296
Bq         2.0637648042    -1.4119212279     0.3715609802
Bq         1.9441795129    -1.4917681812     0.6348551543
Bq         2.1036265680    -1.3853055768     0.2837962555
Bq         1.9043177491    -1.5183838324     0.7226198790
Bq         2.1434883318    -1.3586899257     0.1960315307
Bq         1.8644559853    -1.5449994835     0.8103846037
Bq         2.1833500956    -1.3320742746     0.1082668060
Bq         1.8245942215    -1.5716151346     0.8981493284
Bq         2.2232118594    -1.3054586235     0.0205020813
Bq         2.0239030404    -1.4385368790     0.4593257049
Bq         1.9730348033    -1.3687595474     0.5713236801
Bq         2.0527583309    -1.3155282452     0.3957942306
Bq         1.9331730395    -1.3953751985     0.6590884048
Bq         2.0926200946    -1.2889125941     0.3080295059
Bq         1.8933112757    -1.4219908496     0.7468531295
Bq         2.1324818584    -1.2622969430     0.2202647812
Bq         1.8534495119    -1.4486065008     0.8346178542
Bq         2.1723436222    -1.2356812919     0.1325000565
Bq         1.8135877481    -1.4752221519     0.9223825789
Bq         2.2122053860    -1.2090656408     0.0447353318
Bq         2.0128965671    -1.3421438963     0.4835589553
Bq         1.9620283299    -1.2723665647     0.5955569305
Bq         2.0417518575    -1.2191352625     0.4200274811
Bq         1.9221665661    -1.2989822158     0.6833216552
Bq         2.0816136213    -1.1925196114     0.3322627564
Bq         1.8823048023    -1.3255978669     0.7710863799
Bq         2.1214753851    -1.1659039603     0.2444980317
Bq         1.8424430385    -1.3522135180     0.8588511047
Bq         2.1613371488    -1.1392883092     0.1567333070
Bq         1.8025812748    -1.3788291691     0.9466158294
Bq         2.2011989126    -1.1126726581     0.0689685822
Bq         2.0018900937    -1.2457509136     0.5077922058
Bq         1.9510218565    -1.1759735820     0.6197901810
Bq         2.0307453841    -1.1227422798     0.4442607315
Bq         1.9111600927    -1.2025892331     0.7075549057
Bq         2.0706071479    -1.0961266287     0.3564960068
Bq         1.8712983290    -1.2292048842     0.7953196304
Bq         2.1104689117    -1.0695109776     0.2687312821
Bq         1.8314365652    -1.2558205353     0.8830843551
Bq         2.1503306755    -1.0428953265     0.1809665574
Bq         1.7915748014    -1.2824361864     0.9708490798
Bq         2.1901924393    -1.0162796754     0.0932018327
Bq         1.9908836203    -1.1493579309     0.5320254563
Bq         1.9400153832    -1.0795805993     0.6440234314
Bq         2.0197389107    -1.0263492971     0.4684939820
Bq         1.9001536194    -1.1061962504     0.7317881561
Bq         2.0596006745    -0.9997336460     0.3807292573
Bq         1.8602918556    -1.1328119015     0.8195528809
Bq         2.0994624383    -0.9731179949     0.2929645326
Bq         1.8204300918    -1.1594275526     0.9073176056
Bq         2.1393242021    -0.9465023438     0.2051998079
Bq         1.7805683280    -1.1860432037     0.9950823303
Bq         2.1791859659    -0.9198866927     0.1174350832
Bq         1.9798771469    -1.0529649482     0.5562587067
Bq         1.9290089098    -0.9831876166     0.6682566819
Bq         2.0087324374    -0.9299563144     0.4927272325
Bq         1.8891471460    -1.0098032677     0.7560214066
Bq         2.0485942012    -0.9033406633     0.4049625077
Bq         1.8492853822    -1.0364189188     0.8437861313
Bq         2.0884559649    -0.8767250122     0.3171977830
Bq         1.8094236184    -1.0630345699     0.9315508560
Bq         2.1283177287    -0.8501093610     0.2294330583
Bq         1.7695618546    -1.0896502210     1.0193155807
Bq         2.1681794925    -0.8234937099     0.1416683336
Bq         1.9688706736    -0.9565719655     0.5804919572
Bq         1.9180024364    -0.8867946339     0.6924899323
Bq         1.9977259640    -0.8335633317     0.5169604829
Bq         1.8781406726    -0.9134102850     0.7802546571
Bq         2.0375877278    -0.8069476805     0.4291957582
Bq         1.8382789088    -0.9400259361     0.8680193818
Bq         2.0774494916    -0.7803320294     0.3414310335
Bq         1.7984171451    -0.9666415872     0.9557841065
Bq         2.1173112554    -0.7537163783     0.2536663088
Bq         1.7585553813    -0.9932572383     1.0435488312
Bq         2.1571730191    -0.7271007272     0.1659015841
Bq         1.9578642002    -0.8601789828     0.6047252076
Bq         1.9069959630    -0.7904016512     0.7167231828
Bq         1.9867194906    -0.7371703489     0.5411937334
Bq         1.8671341993    -0.8170173023     0.8044879075
Bq         2.0265812544    -0.7105546978     0.4534290087
Bq         1.8272724355    -0.8436329534     0.8922526322
Bq         2.0664430182    -0.6839390467     0.3656642840
Bq         1.7874106717    -0.8702486045     0.9800173569
Bq         2.1063047820    -0.6573233956     0.2778995592
Bq         1.7475489079    -0.8968642556     1.0677820817
Bq         2.1461665458    -0.6307077445     0.1901348345
Bq         1.9468577268    -0.7637860000     0.6289584581
Bq         1.8959894897    -0.6940086684     0.7409564333
Bq         1.9757130172    -0.6407773662     0.5654269838
Bq         1.8561277259    -0.7206243196     0.8287211580
Bq         2.0155747810    -0.6141617151     0.4776622591
Bq         1.8162659621    -0.7472399707     0.9164858827
Bq         2.0554365448    -0.5875460640     0.3898975344
Bq         1.7764041983    -0.7738556218     1.0042506074
Bq         2.0952983086    -0.5609304129     0.3021328097
Bq         1.7365424345    -0.8004712729     1.0920153321
Bq         2.1351600724    -0.5343147618     0.2143680850
Bq         1.9358512535    -0.6673930173     0.6531917085
Bq         1.8849830163    -0.5976156857     0.7651896837
Bq         1.9647065439    -0.5443843835     0.5896602343
Bq         1.8451212525    -0.6242313368     0.8529544084
Bq         2.0045683077    -0.5177687324     0.5018955096
Bq         1.8052594887    -0.6508469879     0.9407191331
Bq         2.0444300715    -0.4911530813     0.4141307849
Bq         1.7653977249    -0.6774626391     1.0284838579
Bq         2.0842918352    -0.4645374302     0.3263660602
Bq         1.7255359612    -0.7040782902     1.1162485826
Bq         2.1241535990    -0.4379217791     0.2386013354
Bq         1.9248447801    -0.5710000346     0.6774249590
Bq         1.8739765429    -0.5012227030     0.7894229342
Bq         1.9537000705    -0.4479914008     0.6138934848
Bq         1.8341147791    -0.5278383541     0.8771876589
Bq         1.9935618343    -0.4213757497     0.5261287600
Bq         1.7942530154    -0.5544540052     0.9649523836
Bq         2.0334235981    -0.3947600986     0.4383640353
Bq         1.7543912516    -0.5810696563     1.0527171083
Bq         2.0732853619    -0.3681444475     0.3505993106
Bq         1.7145294878    -0.6076853074     1.1404818330
Bq         2.1131471257    -0.3415287964     0.2628345859
Bq         1.9138383067    -0.4746070519     0.7016582095
Bq         1.8629700696    -0.4048297203     0.8136561846
Bq         1.9426935971    -0.3515984181     0.6381267352
Bq         1.8231083058    -0.4314453714     0.9014209093
Bq         1.9825553609    -0.3249827670     0.5503620105
Bq         1.7832465420    -0.4580610225     0.9891856341
Bq         2.0224171247    -0.2983671159     0.4625972858
Bq         1.7433847782    -0.4846766736     1.0769503588
Bq         2.0622788885    -0.2717514648     0.3748325611
Bq         1.7035230144    -0.5112923247     1.1647150835
Bq         2.1021406523    -0.2451358137     0.2870678364
Bq         1.9028318333    -0.3782140692     0.7258914599
Bq         1.8519635962    -0.3084367376     0.8378894351
Bq         1.9316871238    -0.2552054354     0.6623599857
Bq         1.8121018324    -0.3350523887     0.9256541598
Bq         1.9715488875    -0.2285897843     0.5745952610
Bq         1.7722400686    -0.3616680398     1.0134188845
Bq         2.0114106513    -0.2019741332     0.4868305362
Bq         1.7323783048    -0.3882836909     1.1011836092
Bq         2.0512724151    -0.1753584821     0.3990658115
Bq         1.6925165410    -0.4148993420     1.1889483339
Bq         2.0911341789    -0.1487428310     0.3113010868
Bq         1.8918253600    -0.2818210865     0.7501247104
Bq         1.8409571228    -0.2120437549     0.8621226856
Bq         1.9206806504    -0.1588124527     0.6865932361
Bq         1.8010953590    -0.2386594060     0.9498874103
Bq         1.9605424142    -0.1321968016     0.5988285114
Bq         1.7612335952    -0.2652750571     1.0376521350
Bq         2.0004041780    -0.1055811505     0.5110637867
Bq         1.7213718315    -0.2918907082     1.1254168597
Bq         2.0402659418    -0.0789654993     0.4232990620
Bq         1.6815100677    -0.3185063593     1.2131815844
Bq         2.0801277055    -0.0523498482     0.3355343373
Bq         1.8808188866    -0.1854281038     0.7743579608
Bq         1.8299506494    -0.1156507722     0.8863559360
Bq         1.9096741770    -0.0624194700     0.7108264866
Bq         1.7900888857    -0.1422664233     0.9741206607
Bq         1.9495359408    -0.0358038189     0.6230617619
Bq         1.7502271219    -0.1688820744     1.0618853854
Bq         1.9893977046    -0.0091881677     0.5352970372
Bq         1.7103653581    -0.1954977255     1.1496501101
Bq         2.0292594684     0.0174274834     0.4475323124
Bq         1.6705035943    -0.2221133766     1.2374148349
Bq         2.0691212322     0.0440431345     0.3597675877
Bq         1.8698124132    -0.0890351211     0.7985912113
Bq         2.4713231914    -4.9352999078    -0.2839531993
Bq         2.5510467189    -4.8820686056    -0.4594826487
Bq         2.4314614276    -4.9619155589    -0.1961884745

1
2
3
4
5
6
7
8
9
10
11
12
13
14
15
16
17
18
19
20
21
22
23
24
25
26
27
28
29
30
31
32
33
34
35
36
37
38
39
40
41
42
43
44
45
46
47
48
49
50
51
52
53
54
55
56
57
58
59
60
61
62
63
64
65
66
67
68
69
70
71
72
73
74
75
76
77
78
79
80
81
82
83
84
85
86
87
88
89
90
91
92
93
94
95
96
97
98
99
100
101
102
103
104
105
106
107
108
109
110
111
112
113
114
115
116
117
118
119
120
121
122
123
124
125
126
127
128
129
130
131
132
133
134
135
136
137
138
139
140
141
142
143
144
145
146
147
148
149
150
151
152
153
154
155
156
157
158
159
160
161
162
163
164
165
166
167
168
169
170
171
172
173
174
175
176
177
178
179
180
181
182
183
184
185
186
187
188
189
190
191
192
193
194
195
196
197
198
199
200
201
202
203
204
205
206
207
208
209
210
211
212
213
214
215
216
217
218
219
220
221
222
223
224
225
226
227
228
229
230
231
232
233
234
235
236

