%nproc=8
%mem=1000MB
# rb3lyp/6-311+g** NMR geom=connectivity

Title

0 1
C    -4.0500558   -0.5771862    0.8136712
H    -5.0263804   -1.0082727    1.0024760
C    -3.9381552    0.6617804    0.2400876
H    -4.8252424    1.2338890   -0.0111295
C    -2.6768410    1.2433246    0.0057578
C    -1.4974121    0.5051527    0.2848253
C    -1.6508332   -0.7338728    0.9404026
H    -0.7713646   -1.2730967    1.2633753
C    -2.8898548   -1.2624035    1.1994307
H    -2.9683706   -2.2124563    1.7152676
C    -2.5773185    2.5963696   -0.4192930
H    -3.4870728    3.1412239   -0.6474055
C    -1.3741895    3.2147896   -0.4364030
H    -1.2997315    4.2742019   -0.6578144
C    -0.1719488    2.4994090   -0.1734588
C    -0.2043917    1.1018437    0.0192689
C     1.0513491    3.2042560   -0.0676222
H     1.0427344    4.2819499   -0.1896997
C     2.1942091    2.5487446    0.2579577
H     3.1168527    3.0912848    0.4334727
C     2.2216473    1.1336562    0.2934990
C     1.0486931    0.3945528    0.0302412
C     3.4483363    0.4614633    0.5573939
H     4.3095794    1.0606054    0.8334846
C     3.5427346   -0.8855926    0.4749463
H     4.4731467   -1.3939704    0.7038822
C     2.4490052   -1.6474447   -0.0196319
C     1.2150704   -1.0057258   -0.3013573
C     0.2531113   -1.7434440   -1.0216591
H    -0.6541356   -1.2535051   -1.3462847
C     0.4494193   -3.0628597   -1.3413779
H    -0.3083162   -3.5944309   -1.9054060
C     1.6251726   -3.7207967   -0.9552541
H     1.7670048   -4.7687404   -1.1927019
C     2.6109872   -3.0144177   -0.3183050
H     3.5525612   -3.4902813   -0.0646367
Bq        -0.9393620994    -2.5520909911    -0.9963723925
Bq        -0.7799150442    -2.4456283867    -1.3474312913
Bq        -0.9792238632    -2.5787066422    -0.9086076678
Bq        -0.7400532805    -2.4190127355    -1.4351960160
Bq        -1.0190856270    -2.6053222933    -0.8208429430
Bq        -0.7001915167    -2.3923970844    -1.5229607407
Bq        -1.0589473908    -2.6319379444    -0.7330782183
Bq        -0.6603297529    -2.3657814333    -1.6107254655
Bq        -0.8596385718    -2.4988596889    -1.1719018419
Bq        -0.9105068090    -2.4290823573    -1.0599038667
Bq        -0.8307832814    -2.3758510550    -1.2354333161
Bq        -0.9503685728    -2.4556980084    -0.9721391420
Bq        -0.7909215176    -2.3492354039    -1.3231980409
Bq        -0.9902303365    -2.4823136595    -0.8843744173
Bq        -0.7510597538    -2.3226197528    -1.4109627656
Bq        -1.0300921003    -2.5089293106    -0.7966096926
Bq        -0.7111979900    -2.2960041017    -1.4987274903
Bq        -1.0699538641    -2.5355449617    -0.7088449679
Bq        -0.6713362262    -2.2693884506    -1.5864922150
Bq        -0.8706450452    -2.4024667062    -1.1476685914
Bq        -0.9215132823    -2.3326893746    -1.0356706163
Bq        -0.8417897548    -2.2794580723    -1.2112000657
Bq        -0.9613750461    -2.3593050257    -0.9479058915
Bq        -0.8019279910    -2.2528424212    -1.2989647904
Bq        -1.0012368099    -2.3859206768    -0.8601411668
Bq        -0.7620662272    -2.2262267701    -1.3867295151
Bq        -1.0410985737    -2.4125363279    -0.7723764421
Bq        -0.7222044634    -2.1996111190    -1.4744942398
Bq        -1.0809603375    -2.4391519790    -0.6846117174
Bq        -0.6823426996    -2.1729954679    -1.5622589645
Bq        -0.8816515186    -2.3060737234    -1.1234353410
Bq        -0.9325197557    -2.2362963918    -1.0114373658
Bq        -0.8527962281    -2.1830650896    -1.1869668152
Bq        -0.9723815195    -2.2629120429    -0.9236726411
Bq        -0.8129344644    -2.1564494385    -1.2747315399
Bq        -1.0122432833    -2.2895276941    -0.8359079164
Bq        -0.7730727006    -2.1298337874    -1.3624962647
Bq        -1.0521050471    -2.3161433452    -0.7481431917
Bq        -0.7332109368    -2.1032181363    -1.4502609894
Bq        -1.0919668109    -2.3427589963    -0.6603784670
Bq        -0.6933491730    -2.0766024852    -1.5380257141
Bq        -0.8926579919    -2.2096807407    -1.0992020905
Bq        -0.9435262291    -2.1399034091    -0.9872041153
Bq        -0.8638027015    -2.0866721069    -1.1627335648
Bq        -0.9833879929    -2.1665190602    -0.8994393906
Bq        -0.8239409377    -2.0600564558    -1.2504982895
Bq        -1.0232497567    -2.1931347113    -0.8116746659
Bq        -0.7840791739    -2.0334408047    -1.3382630142
Bq        -1.0631115205    -2.2197503624    -0.7239099412
Bq        -0.7442174102    -2.0068251536    -1.4260277389
Bq        -1.1029732842    -2.2463660136    -0.6361452165
Bq        -0.7043556464    -1.9802095025    -1.5137924636
Bq        -0.9036644653    -2.1132877580    -1.0749688401
Bq        -0.9545327025    -2.0435104264    -0.9629708649
Bq        -0.8748091749    -1.9902791242    -1.1385003143
Bq        -0.9943944663    -2.0701260775    -0.8752061402
Bq        -0.8349474111    -1.9636634731    -1.2262650390
Bq        -1.0342562300    -2.0967417286    -0.7874414155
Bq        -0.7950856473    -1.9370478220    -1.3140297637
Bq        -1.0741179938    -2.1233573797    -0.6996766907
Bq        -0.7552238835    -1.9104321709    -1.4017944884
Bq        -1.1139797576    -2.1499730308    -0.6119119660
Bq        -0.7153621197    -1.8838165198    -1.4895592132
Bq        -0.9146709387    -2.0168947753    -1.0507355896
Bq        -0.9655391758    -1.9471174437    -0.9387376144
Bq        -0.8858156483    -1.8938861415    -1.1142670639
Bq        -1.0054009396    -1.9737330948    -0.8509728897
Bq        -0.8459538845    -1.8672704904    -1.2020317886
Bq        -1.0452627034    -2.0003487459    -0.7632081650
Bq        -0.8060921207    -1.8406548393    -1.2897965133
Bq        -1.0851244672    -2.0269643970    -0.6754434403
Bq        -0.7662303569    -1.8140391882    -1.3775612380
Bq        -1.1249862310    -2.0535800481    -0.5876787156
Bq        -0.7263685931    -1.7874235371    -1.4653259627
Bq        -0.9256774120    -1.9205017926    -1.0265023391
Bq        -0.9765456492    -1.8507244610    -0.9145043640
Bq        -0.8968221216    -1.7974931588    -1.0900338134
Bq        -1.0164074130    -1.8773401121    -0.8267396393
Bq        -0.8569603578    -1.7708775077    -1.1777985381
Bq        -1.0562691768    -1.9039557632    -0.7389749145
Bq        -0.8170985941    -1.7442618566    -1.2655632628
Bq        -1.0961309406    -1.9305714143    -0.6512101898
Bq        -0.7772368303    -1.7176462055    -1.3533279875
Bq        -1.1359927044    -1.9571870654    -0.5634454651
Bq        -0.7373750665    -1.6910305543    -1.4410927122
Bq        -0.9366838854    -1.8241088099    -1.0022690887
Bq        -0.9875521226    -1.7543314783    -0.8902711135
Bq        -0.9078285950    -1.7011001761    -1.0658005629
Bq        -1.0274138864    -1.7809471294    -0.8025063888
Bq        -0.8679668312    -1.6744845250    -1.1535652876
Bq        -1.0672756502    -1.8075627805    -0.7147416641
Bq        -0.8281050674    -1.6478688739    -1.2413300124
Bq        -1.1071374139    -1.8341784316    -0.6269769394
Bq        -0.7882433036    -1.6212532227    -1.3290947371
Bq        -1.1469991777    -1.8607940827    -0.5392122147
Bq        -0.7483815399    -1.5946375716    -1.4168594618
Bq        -0.9476903588    -1.7277158272    -0.9780358382
Bq        -0.9985585960    -1.6579384956    -0.8660378631
Bq        -0.9188350684    -1.6047071934    -1.0415673125
Bq        -1.0384203597    -1.6845541467    -0.7782731383
Bq        -0.8789733046    -1.5780915422    -1.1293320372
Bq        -1.0782821235    -1.7111697978    -0.6905084136
Bq        -0.8391115408    -1.5514758911    -1.2170967619
Bq        -1.1181438873    -1.7377854489    -0.6027436889
Bq        -0.7992497770    -1.5248602400    -1.3048614866
Bq        -1.1580056511    -1.7644011000    -0.5149789642
Bq        -0.7593880132    -1.4982445889    -1.3926262113
Bq        -0.9586968322    -1.6313228445    -0.9538025878
Bq        -1.0095650693    -1.5615455129    -0.8418046126
Bq        -0.9298415417    -1.5083142106    -1.0173340620
Bq        -1.0494268331    -1.5881611640    -0.7540398879
Bq        -0.8899797780    -1.4816985595    -1.1050987867
Bq        -1.0892885969    -1.6147768151    -0.6662751632
Bq        -0.8501180142    -1.4550829084    -1.1928635114
Bq        -1.1291503607    -1.6413924662    -0.5785104385
Bq        -0.8102562504    -1.4284672573    -1.2806282362
Bq        -1.1690121245    -1.6680081173    -0.4907457137
Bq        -0.7703944866    -1.4018516062    -1.3683929609
Bq        -0.9697033055    -1.5349298617    -0.9295693373
Bq        -1.0205715427    -1.4651525301    -0.8175713621
Bq        -0.9408480151    -1.4119212279    -0.9931008116
Bq        -1.0604333065    -1.4917681812    -0.7298066374
Bq        -0.9009862513    -1.3853055768    -1.0808655363
Bq        -1.1002950703    -1.5183838324    -0.6420419127
Bq        -0.8611244875    -1.3586899257    -1.1686302610
Bq        -1.1401568341    -1.5449994835    -0.5542771880
Bq        -0.8212627238    -1.3320742746    -1.2563949857
Bq        -1.1800185978    -1.5716151346    -0.4665124633
Bq        -0.7814009600    -1.3054586235    -1.3441597104
Bq        -0.9807097789    -1.4385368790    -0.9053360869
Bq        -1.0315780161    -1.3687595474    -0.7933381117
Bq        -0.9518544885    -1.3155282452    -0.9688675611
Bq        -1.0714397799    -1.3953751985    -0.7055733870
Bq        -0.9119927247    -1.2889125941    -1.0566322858
Bq        -1.1113015436    -1.4219908496    -0.6178086623
Bq        -0.8721309609    -1.2622969430    -1.1443970105
Bq        -1.1511633074    -1.4486065008    -0.5300439375
Bq        -0.8322691971    -1.2356812919    -1.2321617352
Bq        -1.1910250712    -1.4752221519    -0.4422792128
Bq        -0.7924074333    -1.2090656408    -1.3199264600
Bq        -0.9917162523    -1.3421438963    -0.8811028364
Bq        -1.0425844894    -1.2723665647    -0.7691048612
Bq        -0.9628609619    -1.2191352625    -0.9446343106
Bq        -1.0824462532    -1.2989822158    -0.6813401365
Bq        -0.9229991981    -1.1925196114    -1.0323990354
Bq        -1.1223080170    -1.3255978669    -0.5935754118
Bq        -0.8831374343    -1.1659039603    -1.1201637601
Bq        -1.1621697808    -1.3522135180    -0.5058106871
Bq        -0.8432756705    -1.1392883092    -1.2079284848
Bq        -1.2020315446    -1.3788291691    -0.4180459624
Bq        -0.8034139067    -1.1126726581    -1.2956932095
Bq        -1.0027227257    -1.2457509136    -0.8568695859
Bq        -1.0535909628    -1.1759735820    -0.7448716108
Bq        -0.9738674352    -1.1227422798    -0.9204010602
Bq        -1.0934527266    -1.2025892331    -0.6571068861
Bq        -0.9340056714    -1.0961266287    -1.0081657849
Bq        -1.1333144904    -1.2292048842    -0.5693421613
Bq        -0.8941439077    -1.0695109776    -1.0959305096
Bq        -1.1731762542    -1.2558205353    -0.4815774366
Bq        -0.8542821439    -1.0428953265    -1.1836952343
Bq        -1.2130380180    -1.2824361864    -0.3938127119
Bq        -0.8144203801    -1.0162796754    -1.2714599590
Bq        -1.0137291990    -1.1493579309    -0.8326363355
Bq        -1.0645974362    -1.0795805993    -0.7206383603
Bq        -0.9848739086    -1.0263492971    -0.8961678097
Bq        -1.1044592000    -1.1061962504    -0.6328736356
Bq        -0.9450121448    -0.9997336460    -0.9839325344
Bq        -1.1443209638    -1.1328119015    -0.5451089109
Bq        -0.9051503810    -0.9731179949    -1.0716972592
Bq        -1.1841827275    -1.1594275526    -0.4573441862
Bq        -0.8652886172    -0.9465023438    -1.1594619839
Bq        -1.2240444913    -1.1860432037    -0.3695794615
Bq        -0.8254268535    -0.9198866927    -1.2472267086
Bq        -1.0247356724    -1.0529649482    -0.8084030850
Bq        -1.0756039096    -0.9831876166    -0.6964051098
Bq        -0.9958803820    -0.9299563144    -0.8719345593
Bq        -1.1154656733    -1.0098032677    -0.6086403851
Bq        -0.9560186182    -0.9033406633    -0.9596992840
Bq        -1.1553274371    -1.0364189188    -0.5208756604
Bq        -0.9161568544    -0.8767250122    -1.0474640087
Bq        -1.1951892009    -1.0630345699    -0.4331109357
Bq        -0.8762950906    -0.8501093610    -1.1352287334
Bq        -1.2350509647    -1.0896502210    -0.3453462110
Bq        -0.8364333268    -0.8234937099    -1.2229934581
Bq        -1.0357421458    -0.9565719655    -0.7841698346
Bq        -1.0866103829    -0.8867946339    -0.6721718594
Bq        -1.0068868554    -0.8335633317    -0.8477013088
Bq        -1.1264721467    -0.9134102850    -0.5844071347
Bq        -0.9670250916    -0.8069476805    -0.9354660335
Bq        -1.1663339105    -0.9400259361    -0.4966424100
Bq        -0.9271633278    -0.7803320294    -1.0232307582
Bq        -1.2061956743    -0.9666415872    -0.4088776853
Bq        -0.8873015640    -0.7537163783    -1.1109954830
Bq        -1.2460574381    -0.9932572383    -0.3211129605
Bq        -0.8474398002    -0.7271007272    -1.1987602077
Bq        -1.0467486191    -0.8601789828    -0.7599365841
Bq        -1.0976168563    -0.7904016512    -0.6479386089
Bq        -1.0178933287    -0.7371703489    -0.8234680584
Bq        -1.1374786201    -0.8170173023    -0.5601738842
Bq        -0.9780315649    -0.7105546978    -0.9112327831

1
2
3
4
5
6
7
8
9
10
11
12
13
14
15
16
17
18
19
20
21
22
23
24
25
26
27
28
29
30
31
32
33
34
35
36
37
38
39
40
41
42
43
44
45
46
47
48
49
50
51
52
53
54
55
56
57
58
59
60
61
62
63
64
65
66
67
68
69
70
71
72
73
74
75
76
77
78
79
80
81
82
83
84
85
86
87
88
89
90
91
92
93
94
95
96
97
98
99
100
101
102
103
104
105
106
107
108
109
110
111
112
113
114
115
116
117
118
119
120
121
122
123
124
125
126
127
128
129
130
131
132
133
134
135
136
137
138
139
140
141
142
143
144
145
146
147
148
149
150
151
152
153
154
155
156
157
158
159
160
161
162
163
164
165
166
167
168
169
170
171
172
173
174
175
176
177
178
179
180
181
182
183
184
185
186
187
188
189
190
191
192
193
194
195
196
197
198
199
200
201
202
203
204
205
206
207
208
209
210
211
212
213
214
215
216
217
218
219
220
221
222
223
224
225
226
227
228
229
230
231
232
233
234
235
236

