%nproc=8
%mem=1000MB
# rb3lyp/6-311+g** NMR geom=connectivity

Title

0 1
C    -4.0500558   -0.5771862    0.8136712
H    -5.0263804   -1.0082727    1.0024760
C    -3.9381552    0.6617804    0.2400876
H    -4.8252424    1.2338890   -0.0111295
C    -2.6768410    1.2433246    0.0057578
C    -1.4974121    0.5051527    0.2848253
C    -1.6508332   -0.7338728    0.9404026
H    -0.7713646   -1.2730967    1.2633753
C    -2.8898548   -1.2624035    1.1994307
H    -2.9683706   -2.2124563    1.7152676
C    -2.5773185    2.5963696   -0.4192930
H    -3.4870728    3.1412239   -0.6474055
C    -1.3741895    3.2147896   -0.4364030
H    -1.2997315    4.2742019   -0.6578144
C    -0.1719488    2.4994090   -0.1734588
C    -0.2043917    1.1018437    0.0192689
C     1.0513491    3.2042560   -0.0676222
H     1.0427344    4.2819499   -0.1896997
C     2.1942091    2.5487446    0.2579577
H     3.1168527    3.0912848    0.4334727
C     2.2216473    1.1336562    0.2934990
C     1.0486931    0.3945528    0.0302412
C     3.4483363    0.4614633    0.5573939
H     4.3095794    1.0606054    0.8334846
C     3.5427346   -0.8855926    0.4749463
H     4.4731467   -1.3939704    0.7038822
C     2.4490052   -1.6474447   -0.0196319
C     1.2150704   -1.0057258   -0.3013573
C     0.2531113   -1.7434440   -1.0216591
H    -0.6541356   -1.2535051   -1.3462847
C     0.4494193   -3.0628597   -1.3413779
H    -0.3083162   -3.5944309   -1.9054060
C     1.6251726   -3.7207967   -0.9552541
H     1.7670048   -4.7687404   -1.1927019
C     2.6109872   -3.0144177   -0.3183050
H     3.5525612   -3.4902813   -0.0646367
Bq        -1.6823409231     1.0068472364     0.1967645156
Bq        -1.6855268833     1.3981916894     1.0072207875
Bq        -1.6819869275     0.9633645194     0.1067138187
Bq        -1.6837569054     1.1807781044     0.5569673031
Bq        -1.6839399687     1.3143122141     0.6035356189
Bq        -1.6832319776     1.2273467801     0.4234342252
Bq        -1.6842939643     1.3577949311     0.6935863158
Bq        -1.6828779820     1.1838640631     0.3333835283
Bq        -1.6846479599     1.4012776481     0.7836370127
Bq        -1.6825239864     1.1403813461     0.2433328314
Bq        -1.6850019554     1.4447603651     0.8736877096
Bq        -1.6821699908     1.0968986291     0.1532821345
Bq        -1.6853559510     1.4882430821     0.9637384065
Bq        -1.6818159953     1.0534159120     0.0632314376
Bq        -1.6835859731     1.2708294971     0.5134849221
Bq        -1.6837690364     1.4043636067     0.5600532379
Bq        -1.6830610453     1.3173981727     0.3799518441
Bq        -1.6841230320     1.4478463237     0.6501039348
Bq        -1.6827070497     1.2739154557     0.2899011473
Bq        -1.6844770276     1.4913290408     0.7401546317
Bq        -1.6823530541     1.2304327387     0.1998504504
Bq        -1.6848310232     1.5348117578     0.8302053286
Bq        -1.6819990586     1.1869500217     0.1097997535
Bq        -1.6851850187     1.5782944748     0.9202560254
Bq        -1.6816450630     1.1434673047     0.0197490566
Bq        -1.6834150409     1.3608808897     0.4700025410
Bq        -1.6835981042     1.4944149994     0.5165708569
Bq        -1.6828901130     1.4074495654     0.3364694631
Bq        -1.6839520997     1.5378977164     0.6066215538
Bq        -1.6825361174     1.3639668484     0.2464187662
Bq        -1.6843060953     1.5813804334     0.6966722506
Bq        -1.6821821219     1.3204841314     0.1563680693
Bq        -1.6846600909     1.6248631504     0.7867229475
Bq        -1.6818281263     1.2770014144     0.0663173725
Bq        -1.6850140865     1.6683458674     0.8767736444
Bq        -1.6814741307     1.2335186974    -0.0237333244
Bq        -1.6832441086     1.4509322824     0.4265201600
Bq        -1.6834271719     1.5844663921     0.4730884758
Bq        -1.6827191807     1.4975009581     0.2929870821
Bq        -1.6837811675     1.6279491091     0.5631391727
Bq        -1.6823651852     1.4540182411     0.2029363852
Bq        -1.6841351630     1.6714318261     0.6531898696
Bq        -1.6820111896     1.4105355241     0.1128856883
Bq        -1.6844891586     1.7149145431     0.7432405665
Bq        -1.6816571940     1.3670528071     0.0228349914
Bq        -1.6848431542     1.7583972601     0.8332912634
Bq        -1.6813031984     1.3235700901    -0.0672157055
Bq        -1.6830731763     1.5409836751     0.3830377790
Bq        -1.6832562396     1.6745177848     0.4296060948
Bq        -1.6825482485     1.5875523507     0.2495047010
Bq        -1.6836102352     1.7180005018     0.5196567917
Bq        -1.6821942529     1.5440696337     0.1594540042
Bq        -1.6839642308     1.7614832188     0.6097074886
Bq        -1.6818402573     1.5005869167     0.0694033073
Bq        -1.6843182263     1.8049659358     0.6997581855
Bq        -1.6814862617     1.4571041997    -0.0206473896
Bq        -1.6846722219     1.8484486528     0.7898088823
Bq        -1.6811322662     1.4136214827    -0.1106980865
Bq        -1.6829022440     1.6310350678     0.3395553979
Bq        -1.6830853073     1.7645691774     0.3861237138
Bq        -1.6823773162     1.6776037434     0.2060223200
Bq        -1.6834393029     1.8080518944     0.4761744107
Bq        -1.6820233206     1.6341210264     0.1159716231
Bq        -1.6837932985     1.8515346114     0.5662251075
Bq        -1.6816693250     1.5906383094     0.0259209262
Bq        -1.6841472941     1.8950173284     0.6562758044
Bq        -1.6813153295     1.5471555924    -0.0641297706
Bq        -1.6845012896     1.9385000454     0.7463265013
Bq        -1.6809613339     1.5036728754    -0.1541804675
Bq        -1.6827313118     1.7210864604     0.2960730169
Bq        -1.6829143751     1.8546205701     0.3426413327
Bq        -1.6822063839     1.7676551361     0.1625399390
Bq        -1.6832683706     1.8981032871     0.4326920296
Bq        -1.6818523883     1.7241724191     0.0724892421
Bq        -1.6836223662     1.9415860041     0.5227427265
Bq        -1.6814983928     1.6806897021    -0.0175614548
Bq        -1.6839763618     1.9850687211     0.6127934234
Bq        -1.6811443972     1.6372069851    -0.1076121517
Bq        -1.6843303574     2.0285514381     0.7028441203
Bq        -1.6807904016     1.5937242681    -0.1976628486
Bq        -1.6825603795     1.8111378531     0.2525906359
Bq        -1.6827434428     1.9446719628     0.2991589517
Bq        -1.6820354516     1.8577065288     0.1190575579
Bq        -1.6830974384     1.9881546798     0.3892096486
Bq        -1.6816814561     1.8142238118     0.0290068611
Bq        -1.6834514339     2.0316373968     0.4792603455
Bq        -1.6813274605     1.7707410947    -0.0610438358
Bq        -1.6838054295     2.0751201138     0.5693110424
Bq        -1.6809734649     1.7272583777    -0.1510945327
Bq        -1.6841594251     2.1186028308     0.6593617392
Bq        -1.6806194693     1.6837756607    -0.2411452296
Bq        -1.6823894472     1.9011892458     0.2091082548
Bq        -1.6825725105     2.0347233554     0.2556765707
Bq        -1.6818645194     1.9477579214     0.0755751769
Bq        -1.6829265061     2.0782060724     0.3457272676
Bq        -1.6815105238     1.9042752044    -0.0144755200
Bq        -1.6832805017     2.1216887894     0.4357779644
Bq        -1.6811565282     1.8607924874    -0.1045262169
Bq        -1.6836344972     2.1651715065     0.5258286613
Bq        -1.6808025326     1.8173097704    -0.1945769137
Bq        -1.6839884928     2.2086542235     0.6158793582
Bq        -1.6804485371     1.7738270534    -0.2846276106
Bq        -1.6822185149     1.9912406384     0.1656258738
Bq        -1.6824015782     2.1247747481     0.2121941896
Bq        -1.6816935871     2.0378093141     0.0320927959
Bq        -1.6827555738     2.1682574651     0.3022448865
Bq        -1.6813395915     1.9943265971    -0.0579579010
Bq        -1.6831095694     2.2117401821     0.3922955834
Bq        -1.6809855959     1.9508438801    -0.1480085979
Bq        -1.6834635650     2.2552228991     0.4823462803
Bq        -1.6806316004     1.9073611631    -0.2380592948
Bq        -1.6838175605     2.2987056161     0.5723969772
Bq        -1.6802776048     1.8638784461    -0.3281099917
Bq        -1.6820475827     2.0812920311     0.1221434928
Bq        -1.6822306460     2.2148261408     0.1687118086
Bq        -1.6815226548     2.1278607068    -0.0113895852
Bq        -1.6825846415     2.2583088578     0.2587625055
Bq        -1.6811686592     2.0843779898    -0.1014402820
Bq        -1.6829386371     2.3017915748     0.3488132024
Bq        -1.6808146637     2.0408952728    -0.1914909789
Bq        -1.6832926327     2.3452742918     0.4388638993
Bq        -1.6804606681     1.9974125558    -0.2815416758
Bq        -1.6836466283     2.3887570088     0.5289145961
Bq        -1.6801066725     1.9539298388    -0.3715923727
Bq        -1.6818766504     2.1713434238     0.0786611117
Bq        -1.6820597137     2.3048775334     0.1252294276
Bq        -1.6813517225     2.2179120994    -0.0548719662
Bq        -1.6824137093     2.3483602505     0.2152801245
Bq        -1.6809977270     2.1744293824    -0.1449226631
Bq        -1.6827677048     2.3918429675     0.3053308213
Bq        -1.6806437314     2.1309466654    -0.2349733600
Bq        -1.6831217004     2.4353256845     0.3953815182
Bq        -1.6802897358     2.0874639484    -0.3250240568
Bq        -1.6834756960     2.4788084015     0.4854322151
Bq        -1.6799357402     2.0439812314    -0.4150747537
Bq        -1.6817057181     2.2613948164     0.0351787307
Bq        -1.6818887814     2.3949289261     0.0817470465
Bq        -1.6811807903     2.3079634921    -0.0983543472
Bq        -1.6822427770     2.4384116431     0.1717977434
Bq        -1.6808267947     2.2644807751    -0.1884050441
Bq        -1.6825967726     2.4818943601     0.2618484403
Bq        -1.6804727991     2.2209980581    -0.2784557410
Bq        -1.6829507681     2.5253770771     0.3518991372
Bq        -1.6801188035     2.1775153411    -0.3685064379
Bq        -1.6833047637     2.5688597941     0.4419498341
Bq        -1.6797648080     2.1340326241    -0.4585571347
Bq        -1.6815347858     2.3514462091    -0.0083036503
Bq        -1.6817178491     2.4849803188     0.0382646655
Bq        -1.6810098580     2.3980148848    -0.1418367283
Bq        -1.6820718447     2.5284630358     0.1283153624
Bq        -1.6806558624     2.3545321678    -0.2318874251
Bq        -1.6824258403     2.5719457528     0.2183660593
Bq        -1.6803018668     2.3110494508    -0.3219381220
Bq        -1.6827798359     2.6154284698     0.3084167562
Bq        -1.6799478713     2.2675667338    -0.4119888189
Bq        -1.6831338314     2.6589111868     0.3984674530
Bq        -1.6795938757     2.2240840168    -0.5020395158
Bq        -1.6813638536     2.4414976018    -0.0517860314
Bq        -1.5902652355    -2.0175893147     2.2127768211
Bq        -1.5895572444    -2.1045547487     2.0326754273
Bq        -1.5906192311    -1.9741065977     2.3028275180
Bq        -1.5892032488    -2.1480374658     1.9426247304
Bq        -1.5909732267    -1.9306238807     2.3928782148
Bq        -1.5888492532    -2.1915201828     1.8525740335
Bq        -1.5913272223    -1.8871411637     2.4829289117
Bq        -1.5884952577    -2.2350028998     1.7625233367
Bq        -1.5916812178    -1.8436584467     2.5729796086
Bq        -1.5881412621    -2.2784856168     1.6724726398
Bq        -1.5899112400    -2.0610720317     2.1227261242
Bq        -1.5900943033    -1.9275379221     2.1692944400
Bq        -1.5893863121    -2.0145033561     1.9891930463
Bq        -1.5904482988    -1.8840552051     2.2593451369
Bq        -1.5890323165    -2.0579860731     1.8991423494
Bq        -1.5908022944    -1.8405724881     2.3493958338
Bq        -1.5886783210    -2.1014687901     1.8090916525
Bq        -1.5911562900    -1.7970897711     2.4394465307
Bq        -1.5883243254    -2.1449515071     1.7190409556
Bq        -1.5915102856    -1.7536070540     2.5294972276
Bq        -1.5879703298    -2.1884342241     1.6289902588
Bq        -1.5897403077    -1.9710206391     2.0792437432
Bq        -1.5899233710    -1.8374865294     2.1258120590
Bq        -1.5892153798    -1.9244519634     1.9457106653
Bq        -1.5902773666    -1.7940038124     2.2158627559
Bq        -1.5888613843    -1.9679346804     1.8556599684
Bq        -1.5906313621    -1.7505210954     2.3059134528
Bq        -1.5885073887    -2.0114173974     1.7656092715
Bq        -1.5909853577    -1.7070383784     2.3959641497
Bq        -1.5881533931    -2.0549001144     1.6755585746
Bq        -1.5913393533    -1.6635556614     2.4860148465
Bq        -1.5877993975    -2.0983828314     1.5855078777
Bq        -1.5895693754    -1.8809692464     2.0357613621
Bq        -1.5897524387    -1.7474351367     2.0823296780
Bq        -1.5890444476    -1.8344005707     1.9022282842
Bq        -1.5901064343    -1.7039524197     2.1723803749
Bq        -1.5886904520    -1.8778832877     1.8121775873
Bq        -1.5904604299    -1.6604697027     2.2624310717
Bq        -1.5883364564    -1.9213660047     1.7221268905
Bq        -1.5908144254    -1.6169869857     2.3524817686
Bq        -1.5879824608    -1.9648487217     1.6320761936
Bq        -1.5911684210    -1.5735042687     2.4425324655

1
2
3
4
5
6
7
8
9
10
11
12
13
14
15
16
17
18
19
20
21
22
23
24
25
26
27
28
29
30
31
32
33
34
35
36
37
38
39
40
41
42
43
44
45
46
47
48
49
50
51
52
53
54
55
56
57
58
59
60
61
62
63
64
65
66
67
68
69
70
71
72
73
74
75
76
77
78
79
80
81
82
83
84
85
86
87
88
89
90
91
92
93
94
95
96
97
98
99
100
101
102
103
104
105
106
107
108
109
110
111
112
113
114
115
116
117
118
119
120
121
122
123
124
125
126
127
128
129
130
131
132
133
134
135
136
137
138
139
140
141
142
143
144
145
146
147
148
149
150
151
152
153
154
155
156
157
158
159
160
161
162
163
164
165
166
167
168
169
170
171
172
173
174
175
176
177
178
179
180
181
182
183
184
185
186
187
188
189
190
191
192
193
194
195
196
197
198
199
200
201
202
203
204
205
206
207
208
209
210
211
212
213
214
215
216
217
218
219
220
221
222
223
224
225
226
227
228
229
230
231
232
233
234
235
236

