%nproc=8
%mem=1000MB
# rb3lyp/6-311+g** NMR geom=connectivity

Title

0 1
C    -4.0500558   -0.5771862    0.8136712
H    -5.0263804   -1.0082727    1.0024760
C    -3.9381552    0.6617804    0.2400876
H    -4.8252424    1.2338890   -0.0111295
C    -2.6768410    1.2433246    0.0057578
C    -1.4974121    0.5051527    0.2848253
C    -1.6508332   -0.7338728    0.9404026
H    -0.7713646   -1.2730967    1.2633753
C    -2.8898548   -1.2624035    1.1994307
H    -2.9683706   -2.2124563    1.7152676
C    -2.5773185    2.5963696   -0.4192930
H    -3.4870728    3.1412239   -0.6474055
C    -1.3741895    3.2147896   -0.4364030
H    -1.2997315    4.2742019   -0.6578144
C    -0.1719488    2.4994090   -0.1734588
C    -0.2043917    1.1018437    0.0192689
C     1.0513491    3.2042560   -0.0676222
H     1.0427344    4.2819499   -0.1896997
C     2.1942091    2.5487446    0.2579577
H     3.1168527    3.0912848    0.4334727
C     2.2216473    1.1336562    0.2934990
C     1.0486931    0.3945528    0.0302412
C     3.4483363    0.4614633    0.5573939
H     4.3095794    1.0606054    0.8334846
C     3.5427346   -0.8855926    0.4749463
H     4.4731467   -1.3939704    0.7038822
C     2.4490052   -1.6474447   -0.0196319
C     1.2150704   -1.0057258   -0.3013573
C     0.2531113   -1.7434440   -1.0216591
H    -0.6541356   -1.2535051   -1.3462847
C     0.4494193   -3.0628597   -1.3413779
H    -0.3083162   -3.5944309   -1.9054060
C     1.6251726   -3.7207967   -0.9552541
H     1.7670048   -4.7687404   -1.1927019
C     2.6109872   -3.0144177   -0.3183050
H     3.5525612   -3.4902813   -0.0646367
Bq         3.1544331222     0.4767691162     0.9242424307
Bq         3.0773965293     0.4340861391     1.2110237530
Bq         3.1801119865     0.4909967752     0.8286486566
Bq         3.0517176649     0.4198584801     1.3066175271
Bq         3.2057908509     0.5052244342     0.7330548826
Bq         3.0260388006     0.4056308210     1.4022113012
Bq         3.2314697152     0.5194520933     0.6374611085
Bq         3.0003599363     0.3914031620     1.4978050753
Bq         3.2571485795     0.5336797523     0.5418673344
Bq         3.1287542579     0.4625414571     1.0198362048
Bq         3.0993843430     0.5472964922     1.1291705185
Bq         3.1507420717     0.5757518102     0.9379829703
Bq         3.0737054787     0.5330688331     1.2247642926
Bq         3.1764209360     0.5899794692     0.8423891962
Bq         3.0480266144     0.5188411741     1.3203580667
Bq         3.2020998003     0.6042071283     0.7467954221
Bq         3.0223477501     0.5046135151     1.4159518408
Bq         3.2277786647     0.6184347873     0.6512016480
Bq         2.9966688858     0.4903858560     1.5115456149
Bq         3.2534575290     0.6326624463     0.5556078739
Bq         3.1250632074     0.5615241512     1.0335767444
Bq         3.0956932925     0.6462791862     1.1429110580
Bq         3.1470510212     0.6747345042     0.9517235099
Bq         3.0700144282     0.6320515272     1.2385048321
Bq         3.1727298855     0.6889621633     0.8561297358
Bq         3.0443355639     0.6178238681     1.3340986062
Bq         3.1984087498     0.7031898223     0.7605359617
Bq         3.0186566995     0.6035962091     1.4296923803
Bq         3.2240876141     0.7174174813     0.6649421876
Bq         2.9929778352     0.5893685501     1.5252861544
Bq         3.2497664784     0.7316451404     0.5693484135
Bq         3.1213721568     0.6605068452     1.0473172840
Bq         3.0920022420     0.7452618802     1.1566515976
Bq         3.1433599706     0.7737171983     0.9654640494
Bq         3.0663233777     0.7310342212     1.2522453717
Bq         3.1690388349     0.7879448573     0.8698702753
Bq         3.0406445133     0.7168065622     1.3478391458
Bq         3.1947176993     0.8021725163     0.7742765012
Bq         3.0149656490     0.7025789031     1.4434329199
Bq         3.2203965636     0.8164001754     0.6786827271
Bq         2.9892867847     0.6883512441     1.5390266940
Bq         3.2460754279     0.8306278344     0.5830889530
Bq         3.1176811063     0.7594895393     1.0610578235
Bq         3.0883111914     0.8442445743     1.1703921372
Bq         3.1396689201     0.8726998923     0.9792045890
Bq         3.0626323271     0.8300169152     1.2659859113
Bq         3.1653477844     0.8869275513     0.8836108149
Bq         3.0369534628     0.8157892562     1.3615796854
Bq         3.1910266487     0.9011552104     0.7880170408
Bq         3.0112745985     0.8015615972     1.4571734594
Bq         3.2167055131     0.9153828694     0.6924232667
Bq         2.9855957341     0.7873339381     1.5527672335
Bq         3.2423843774     0.9296105284     0.5968294926
Bq         3.1139900558     0.8584722333     1.0747983631
Bq         3.0846201409     0.9432272683     1.1841326767
Bq         3.1359778695     0.9716825864     0.9929451285
Bq         3.0589412766     0.9289996093     1.2797264508
Bq         3.1616567339     0.9859102454     0.8973513544
Bq         3.0332624123     0.9147719502     1.3753202249
Bq         3.1873355982     1.0001379044     0.8017575803
Bq         3.0075835479     0.9005442912     1.4709139990
Bq         3.2130144625     1.0143655634     0.7061638063
Bq         2.9819046836     0.8863166322     1.5665077731
Bq         3.2386933268     1.0285932225     0.6105700322
Bq         3.1102990052     0.9574549273     1.0885389026
Bq         3.0809290904     1.0422099623     1.1978732163
Bq         3.1322868190     1.0706652804     1.0066856681
Bq         3.0552502260     1.0279823033     1.2934669904
Bq         3.1579656833     1.0848929394     0.9110918940
Bq         3.0295713617     1.0137546443     1.3890607645
Bq         3.1836445477     1.0991205984     0.8154981199
Bq         3.0038924974     0.9995269852     1.4846545386
Bq         3.2093234120     1.1133482575     0.7199043458
Bq         2.9782136331     0.9852993262     1.5802483127
Bq         3.2350022763     1.1275759165     0.6243105717
Bq         3.1066079547     1.0564376214     1.1022794422
Bq         3.0772380398     1.1411926564     1.2116137558
Bq         3.1285957685     1.1696479744     1.0204262077
Bq         3.0515591755     1.1269649973     1.3072075299
Bq         3.1542746328     1.1838756335     0.9248324336
Bq         3.0258803112     1.1127373383     1.4028013040
Bq         3.1799534971     1.1981032925     0.8292386595
Bq         3.0002014469     1.0985096793     1.4983950781
Bq         3.2056323614     1.2123309515     0.7336448854
Bq         2.9745225825     1.0842820203     1.5939888522
Bq         3.2313112258     1.2265586105     0.6380511113
Bq         3.1029169042     1.1554203154     1.1160199817
Bq         3.0735469893     1.2401753504     1.2253542954
Bq         3.1249047179     1.2686306685     1.0341667472
Bq         3.0478681250     1.2259476914     1.3209480695
Bq         3.1505835823     1.2828583275     0.9385729731
Bq         3.0221892607     1.2117200323     1.4165418436
Bq         3.1762624466     1.2970859865     0.8429791990
Bq         2.9965103963     1.1974923733     1.5121356177
Bq         3.2019413109     1.3113136455     0.7473854249
Bq         2.9708315320     1.1832647143     1.6077293918
Bq         3.2276201752     1.3255413046     0.6517916508
Bq         3.0992258536     1.2544030094     1.1297605213
Bq         3.0698559388     1.3391580444     1.2390948350
Bq         3.1212136674     1.3676133625     1.0479072868
Bq         3.0441770744     1.3249303854     1.3346886091
Bq         3.1468925317     1.3818410215     0.9523135127
Bq         3.0184982101     1.3107027264     1.4302823831
Bq         3.1725713961     1.3960686806     0.8567197386
Bq         2.9928193458     1.2964750674     1.5258761572
Bq         3.1982502604     1.4102963396     0.7611259645
Bq         2.9671404815     1.2822474083     1.6214699313
Bq         3.2239291247     1.4245239986     0.6655321904
Bq         3.0955348031     1.3533857035     1.1435010609
Bq         3.0661648882     1.4381407385     1.2528353745
Bq         3.1175226169     1.4665960565     1.0616478263
Bq         3.0404860239     1.4239130794     1.3484291486
Bq         3.1432014812     1.4808237156     0.9660540522
Bq         3.0148071596     1.4096854204     1.4440229227
Bq         3.1688803455     1.4950513746     0.8704602781
Bq         2.9891282953     1.3954577614     1.5396166968
Bq         3.1945592098     1.5092790336     0.7748665040
Bq         2.9634494309     1.3812301024     1.6352104709
Bq         3.2202380742     1.5235066926     0.6792727299
Bq         3.0918437525     1.4523683975     1.1572416004
Bq         3.0624738377     1.5371234325     1.2665759141
Bq         3.1138315663     1.5655787506     1.0753883659
Bq         3.0367949734     1.5228957735     1.3621696882
Bq         3.1395104307     1.5798064096     0.9797945918
Bq         3.0111161090     1.5086681145     1.4577634623
Bq         3.1651892950     1.5940340686     0.8842008177
Bq         2.9854372447     1.4944404554     1.5533572364
Bq         3.1908681593     1.6082617277     0.7886070436
Bq         2.9597583804     1.4802127964     1.6489510105
Bq         3.2165470236     1.6224893867     0.6930132695
Bq         3.0881527020     1.5513510915     1.1709821400
Bq         3.0587827872     1.6361061265     1.2803164536
Bq         3.1101405158     1.6645614446     1.0891289054
Bq         3.0331039228     1.6218784675     1.3759102277
Bq         3.1358193801     1.6787891036     0.9935351314
Bq         3.0074250585     1.6076508085     1.4715040018
Bq         3.1614982444     1.6930167627     0.8979413573
Bq         2.9817461942     1.5934231495     1.5670977759
Bq         3.1871771088     1.7072444217     0.8023475832
Bq         2.9560673299     1.5791954904     1.6626915500
Bq         3.2128559731     1.7214720807     0.7067538091
Bq         3.0844616515     1.6503337856     1.1847226795
Bq         3.0550917366     1.7350888206     1.2940569932
Bq         3.1064494653     1.7635441386     1.1028694450
Bq         3.0294128723     1.7208611616     1.3896507673
Bq         3.1321283296     1.7777717977     1.0072756709
Bq         3.0037340080     1.7066335025     1.4852445414
Bq         3.1578071939     1.7919994567     0.9116818968
Bq         2.9780551437     1.6924058435     1.5808383155
Bq         3.1834860582     1.8062271157     0.8160881227
Bq         2.9523762793     1.6781781845     1.6764320896
Bq         3.2091649226     1.8204547748     0.7204943486
Bq         3.0807706009     1.7493164796     1.1984632191
Bq         3.0514006861     1.8340715146     1.3077975328
Bq         3.1027584147     1.8625268327     1.1166099846
Bq         3.0257218218     1.8198438556     1.4033913068
Bq         3.1284372791     1.8767544917     1.0210162105
Bq         3.0000429574     1.8056161966     1.4989850809
Bq         3.1541161434     1.8909821507     0.9254224364
Bq         2.9743640931     1.7913885375     1.5945788550
Bq         3.1797950077     1.9052098098     0.8298286623
Bq         2.9486852288     1.7771608785     1.6901726291
Bq         3.2054738720     1.9194374688     0.7342348882
Bq         3.0770795504     1.8482991736     1.2122037587
Bq         3.0477096355     1.9330542087     1.3215380723
Bq         3.0990673642     1.9615095267     1.1303505241
Bq         3.0220307712     1.9188265496     1.4171318464
Bq         3.1247462285     1.9757371857     1.0347567500
Bq         2.9963519069     1.9045988906     1.5127256205
Bq         3.1504250928     1.9899648448     0.9391629759
Bq         2.9706730426     1.8903712316     1.6083193946
Bq         3.1761039572     2.0041925038     0.8435692018
Bq         2.9449941783     1.8761435725     1.7039131687
Bq         3.2017828215     2.0184201628     0.7479754277
Bq         3.0733884999     1.9472818677     1.2259442982
Bq         3.0440185850     2.0320369027     1.3352786119
Bq         3.0953763137     2.0604922207     1.1440910637
Bq         3.0183397207     2.0178092437     1.4308723860
Bq         3.1210551780     2.0747198798     1.0484972896
Bq         2.9926608564     2.0035815846     1.5264661601
Bq         3.1467340423     2.0889475388     0.9529035155
Bq         2.9669819920     1.9893539256     1.6220599342
Bq         3.1724129066     2.1031751978     0.8573097414
Bq         2.9413031277     1.9751262666     1.7176537083
Bq         3.1980917709     2.1174028569     0.7617159673
Bq         3.0696974493     2.0462645617     1.2396848378
Bq         3.0403275345     2.1310195967     1.3490191514
Bq         3.0916852631     2.1594749148     1.1578316032
Bq         3.0146486702     2.1167919377     1.4446129255
Bq         3.1173641274     2.1737025738     1.0622378291
Bq         2.9889698058     2.1025642787     1.5402066996
Bq         3.1430429918     2.1879302328     0.9666440551
Bq         2.9632909415     2.0883366196     1.6358004737
Bq         3.1687218561     2.2021578919     0.8710502810
Bq         2.9376120772     2.0741089606     1.7313942478
Bq         3.1944007204     2.2163855509     0.7754565069
Bq         3.0660063988     2.1452472558     1.2534253773
Bq         3.3214563113    -2.8181151051     0.6879349553
Bq         3.3728140399    -2.7896597870     0.4967474071
Bq         3.2957774470    -2.8323427641     0.7835287294

1
2
3
4
5
6
7
8
9
10
11
12
13
14
15
16
17
18
19
20
21
22
23
24
25
26
27
28
29
30
31
32
33
34
35
36
37
38
39
40
41
42
43
44
45
46
47
48
49
50
51
52
53
54
55
56
57
58
59
60
61
62
63
64
65
66
67
68
69
70
71
72
73
74
75
76
77
78
79
80
81
82
83
84
85
86
87
88
89
90
91
92
93
94
95
96
97
98
99
100
101
102
103
104
105
106
107
108
109
110
111
112
113
114
115
116
117
118
119
120
121
122
123
124
125
126
127
128
129
130
131
132
133
134
135
136
137
138
139
140
141
142
143
144
145
146
147
148
149
150
151
152
153
154
155
156
157
158
159
160
161
162
163
164
165
166
167
168
169
170
171
172
173
174
175
176
177
178
179
180
181
182
183
184
185
186
187
188
189
190
191
192
193
194
195
196
197
198
199
200
201
202
203
204
205
206
207
208
209
210
211
212
213
214
215
216
217
218
219
220
221
222
223
224
225
226
227
228
229
230
231
232
233
234
235
236

