%nproc=8
%mem=1000MB
# rb3lyp/6-311+g** NMR geom=connectivity

Title

0 1
C    -4.0500558   -0.5771862    0.8136712
H    -5.0263804   -1.0082727    1.0024760
C    -3.9381552    0.6617804    0.2400876
H    -4.8252424    1.2338890   -0.0111295
C    -2.6768410    1.2433246    0.0057578
C    -1.4974121    0.5051527    0.2848253
C    -1.6508332   -0.7338728    0.9404026
H    -0.7713646   -1.2730967    1.2633753
C    -2.8898548   -1.2624035    1.1994307
H    -2.9683706   -2.2124563    1.7152676
C    -2.5773185    2.5963696   -0.4192930
H    -3.4870728    3.1412239   -0.6474055
C    -1.3741895    3.2147896   -0.4364030
H    -1.2997315    4.2742019   -0.6578144
C    -0.1719488    2.4994090   -0.1734588
C    -0.2043917    1.1018437    0.0192689
C     1.0513491    3.2042560   -0.0676222
H     1.0427344    4.2819499   -0.1896997
C     2.1942091    2.5487446    0.2579577
H     3.1168527    3.0912848    0.4334727
C     2.2216473    1.1336562    0.2934990
C     1.0486931    0.3945528    0.0302412
C     3.4483363    0.4614633    0.5573939
H     4.3095794    1.0606054    0.8334846
C     3.5427346   -0.8855926    0.4749463
H     4.4731467   -1.3939704    0.7038822
C     2.4490052   -1.6474447   -0.0196319
C     1.2150704   -1.0057258   -0.3013573
C     0.2531113   -1.7434440   -1.0216591
H    -0.6541356   -1.2535051   -1.3462847
C     0.4494193   -3.0628597   -1.3413779
H    -0.3083162   -3.5944309   -1.9054060
C     1.6251726   -3.7207967   -0.9552541
H     1.7670048   -4.7687404   -1.1927019
C     2.6109872   -3.0144177   -0.3183050
H     3.5525612   -3.4902813   -0.0646367
Bq         0.6526428641     3.0750396931     0.6866811278
Bq         0.6910626774     2.8295465194    -0.2819555531
Bq         0.6718527708     2.9522931063     0.2023627873
Bq         0.6689837437     3.0737822556     0.2746964260
Bq         0.6766677063     3.0246836208     0.0809690898
Bq         0.6651417623     3.0983315730     0.3715600941
Bq         0.6805096876     3.0001343035    -0.0158945783
Bq         0.6612997810     3.1228808903     0.4684237622
Bq         0.6843516690     2.9755849861    -0.1127582464
Bq         0.6574577997     3.1474302077     0.5652874303
Bq         0.6881936503     2.9510356687    -0.2096219145
Bq         0.6536158183     3.1719795251     0.6621510983
Bq         0.6920356316     2.9264863513    -0.3064855826
Bq         0.6728257250     3.0492329382     0.1778327579
Bq         0.6699566979     3.1707220875     0.2501663966
Bq         0.6776406605     3.1216234528     0.0564390604
Bq         0.6661147165     3.1952714049     0.3470300646
Bq         0.6814826419     3.0970741354    -0.0404246077
Bq         0.6622727352     3.2198207223     0.4438937327
Bq         0.6853246232     3.0725248180    -0.1372882758
Bq         0.6584307539     3.2443700397     0.5407574008
Bq         0.6891666045     3.0479755006    -0.2341519439
Bq         0.6545887726     3.2689193570     0.6376210689
Bq         0.6930085859     3.0234261833    -0.3310156120
Bq         0.6737986792     3.1461727701     0.1533027285
Bq         0.6709296521     3.2676619195     0.2256363671
Bq         0.6786136148     3.2185632847     0.0319090310
Bq         0.6670876708     3.2922112368     0.3225000352
Bq         0.6824555961     3.1940139673    -0.0649546371
Bq         0.6632456894     3.3167605542     0.4193637033
Bq         0.6862975774     3.1694646500    -0.1618183052
Bq         0.6594037081     3.3413098716     0.5162273714
Bq         0.6901395587     3.1449153326    -0.2586819733
Bq         0.6555617268     3.3658591890     0.6130910395
Bq         0.6939815401     3.1203660152    -0.3555456414
Bq         0.6747716334     3.2431126021     0.1287726990
Bq         0.6719026063     3.3646017514     0.2011063377
Bq         0.6795865690     3.3155031167     0.0073790015
Bq         0.6680606250     3.3891510688     0.2979700058
Bq         0.6834285503     3.2909537993    -0.0894846666
Bq         0.6642186437     3.4137003862     0.3948336739
Bq         0.6872705316     3.2664044819    -0.1863483347
Bq         0.6603766623     3.4382497035     0.4916973420
Bq         0.6911125130     3.2418551645    -0.2832120027
Bq         0.6565346810     3.4627990209     0.5885610101
Bq         0.6949544943     3.2173058471    -0.3800756708
Bq         0.6757445877     3.3400524340     0.1042426696
Bq         0.6728755605     3.4615415833     0.1765763083
Bq         0.6805595232     3.4124429486    -0.0171510279
Bq         0.6690335792     3.4860909007     0.2734399764
Bq         0.6844015045     3.3878936312    -0.1140146960
Bq         0.6651915979     3.5106402181     0.3703036445
Bq         0.6882434859     3.3633443138    -0.2108783641
Bq         0.6613496166     3.5351895355     0.4671673125
Bq         0.6920854672     3.3387949965    -0.3077420322
Bq         0.6575076352     3.5597388528     0.5640309806
Bq         0.6959274485     3.3142456791    -0.4046057003
Bq         0.6767175419     3.4369922660     0.0797126402
Bq         0.6738485148     3.5584814153     0.1520462789
Bq         0.6815324774     3.5093827805    -0.0416810573
Bq         0.6700065334     3.5830307327     0.2489099469
Bq         0.6853744588     3.4848334632    -0.1385447254
Bq         0.6661645521     3.6075800500     0.3457736150
Bq         0.6892164401     3.4602841458    -0.2354083935
Bq         0.6623225708     3.6321293674     0.4426372831
Bq         0.6930584214     3.4357348284    -0.3322720616
Bq         0.6584805895     3.6566786848     0.5395009512
Bq         0.6969004027     3.4111855110    -0.4291357297
Bq         0.6776904961     3.5339320979     0.0551826108
Bq         0.6748214690     3.6554212472     0.1275162494
Bq         0.6825054317     3.6063226125    -0.0662110868
Bq         0.6709794877     3.6799705646     0.2243799175
Bq         0.6863474130     3.5817732951    -0.1630747548
Bq         0.6671375063     3.7045198820     0.3212435856
Bq         0.6901893943     3.5572239777    -0.2599384229
Bq         0.6632955250     3.7290691993     0.4181072537
Bq         0.6940313756     3.5326746603    -0.3568020910
Bq         0.6594535437     3.7536185167     0.5149709218
Bq         0.6978733570     3.5081253430    -0.4536657591
Bq         0.6786634503     3.6308719298     0.0306525813
Bq         0.6757944232     3.7523610792     0.1029862200
Bq         0.6834783859     3.7032624444    -0.0907411162
Bq         0.6719524419     3.7769103965     0.1998498881
Bq         0.6873203672     3.6787131270    -0.1876047843
Bq         0.6681104606     3.8014597139     0.2967135562
Bq         0.6911623485     3.6541638097    -0.2844684524
Bq         0.6642684792     3.8260090313     0.3935772243
Bq         0.6950043299     3.6296144923    -0.3813321205
Bq         0.6604264979     3.8505583487     0.4904408924
Bq         0.6988463112     3.6050651749    -0.4781957885
Bq         0.6796364046     3.7278117618     0.0061225519
Bq         0.6767673774     3.8493009111     0.0784561906
Bq         0.6844513401     3.8002022763    -0.1152711456
Bq         0.6729253961     3.8738502285     0.1753198587
Bq         0.6882933214     3.7756529590    -0.2121348137
Bq         0.6690834148     3.8983995458     0.2721835268
Bq         0.6921353028     3.7511036416    -0.3089984818
Bq         0.6652414335     3.9229488632     0.3690471948
Bq         0.6959772841     3.7265543242    -0.4058621499
Bq         0.6613994521     3.9474981806     0.4659108629
Bq         0.6998192654     3.7020050068    -0.5027258180
Bq         0.6806093588     3.8247515937    -0.0184074775
Bq         0.6777403317     3.9462407430     0.0539261611
Bq         0.6854242943     3.8971421083    -0.1398011750
Bq         0.6738983503     3.9707900604     0.1507898292
Bq         0.6892662757     3.8725927909    -0.2366648431
Bq         0.6700563690     3.9953393778     0.2476534973
Bq         0.6931082570     3.8480434735    -0.3335285112
Bq         0.6662143877     4.0198886952     0.3445171654
Bq         0.6969502383     3.8234941562    -0.4303921793
Bq         0.6623724064     4.0444380125     0.4413808335
Bq         0.7007922196     3.7989448388    -0.5272558474
Bq         0.6815823130     3.9216914257    -0.0429375069
Bq         0.6787132859     4.0431805750     0.0293961317
Bq         0.6863972486     3.9940819402    -0.1643312045
Bq         0.6748713046     4.0677298924     0.1262597998
Bq         0.6902392299     3.9695326228    -0.2611948726
Bq         0.6710293232     4.0922792097     0.2231234679
Bq         0.6940812112     3.9449833055    -0.3580585406
Bq         0.6671873419     4.1168285271     0.3199871360
Bq         0.6979231925     3.9204339881    -0.4549222087
Bq         0.6633453606     4.1413778445     0.4168508041
Bq         0.7017651739     3.8958846707    -0.5517858768
Bq         0.6825552672     4.0186312576    -0.0674675364
Bq         0.6796862401     4.1401204069     0.0048661023
Bq         0.6873702028     4.0910217722    -0.1888612339
Bq         0.6758442588     4.1646697243     0.1017297704
Bq         0.6912121841     4.0664724548    -0.2857249020
Bq         0.6720022775     4.1892190417     0.1985934385
Bq         0.6950541654     4.0419231374    -0.3825885701
Bq         0.6681602961     4.2137683590     0.2954571066
Bq         0.6988961468     4.0173738200    -0.4794522382
Bq         0.6643183148     4.2383176764     0.3923207746
Bq         0.7027381281     3.9928245027    -0.5763159063
Bq         0.6835282215     4.1155710895    -0.0919975658
Bq         0.6806591943     4.2370602389    -0.0196639271
Bq         0.6883431570     4.1879616041    -0.2133912633
Bq         0.6768172130     4.2616095562     0.0771997410
Bq         0.6921851383     4.1634122867    -0.3102549314
Bq         0.6729752317     4.2861588736     0.1740634090
Bq         0.6960271197     4.1388629694    -0.4071185995
Bq         0.6691332504     4.3107081910     0.2709270771
Bq         0.6998691010     4.1143136520    -0.5039822676
Bq         0.6652912690     4.3352575084     0.3677907452
Bq         0.7037110823     4.0897643346    -0.6008459357
Bq         0.6845011757     4.2125109215    -0.1165275952
Bq         0.6816321486     4.3340000708    -0.0441939566
Bq         0.6893161112     4.2849014360    -0.2379212927
Bq         0.6777901672     4.3585493882     0.0526697115
Bq         0.6931580926     4.2603521187    -0.3347849608
Bq         0.6739481859     4.3830987055     0.1495333796
Bq         0.6970000739     4.2358028013    -0.4316486289
Bq         0.6701062046     4.4076480229     0.2463970477
Bq         0.7008420552     4.2112534839    -0.5285122970
Bq         0.6662642233     4.4321973403     0.3432607158
Bq         0.7046840365     4.1867041665    -0.6253759651
Bq         0.6854741299     4.3094507534    -0.1410576247
Bq         0.6826051028     4.4309399027    -0.0687239860
Bq         0.6902890655     4.3818412680    -0.2624513222
Bq         0.6787631215     4.4554892201     0.0281396821
Bq         0.6941310468     4.3572919506    -0.3593149903
Bq         0.6749211401     4.4800385375     0.1250033502
Bq         0.6979730281     4.3327426332    -0.4561786584
Bq         0.6710791588     4.5045878549     0.2218670183
Bq         0.7018150094     4.3081933159    -0.5530423264
Bq         0.6672371775     4.5291371722     0.3187306864
Bq         0.7056569908     4.2836439985    -0.6499059945
Bq         0.6864470841     4.4063905854    -0.1655876541
Bq         0.7338788234    -0.4160516942     1.1617407492
Bq         0.7415627861    -0.4651503290     0.9680134130
Bq         0.7300368421    -0.3915023768     1.2586044173
Bq         0.7454047674    -0.4896996464     0.8711497450
Bq         0.7261948607    -0.3669530595     1.3554680854
Bq         0.7492467487    -0.5142489637     0.7742860769
Bq         0.7223528794    -0.3424037421     1.4523317535
Bq         0.7530887301    -0.5387982811     0.6774224088
Bq         0.7185108981    -0.3178544247     1.5491954216
Bq         0.7569307114    -0.5633475985     0.5805587407
Bq         0.7377208047    -0.4406010116     1.0648770811
Bq         0.7348517776    -0.3191118623     1.1372107198
Bq         0.7425357403    -0.3682104970     0.9434833836
Bq         0.7310097963    -0.2945625449     1.2340743879
Bq         0.7463777216    -0.3927598144     0.8466197155
Bq         0.7271678150    -0.2700132275     1.3309380560
Bq         0.7502197029    -0.4173091318     0.7497560474
Bq         0.7233258336    -0.2454639102     1.4278017241
Bq         0.7540616843    -0.4418584492     0.6528923794
Bq         0.7194838523    -0.2209145928     1.5246653922
Bq         0.7579036656    -0.4664077665     0.5560287113
Bq         0.7386937590    -0.3436611797     1.0403470517
Bq         0.7358247319    -0.2221720303     1.1126806904
Bq         0.7435086945    -0.2712706651     0.9189533542
Bq         0.7319827505    -0.1976227130     1.2095443585
Bq         0.7473506758    -0.2958199825     0.8220896861
Bq         0.7281407692    -0.1730733956     1.3064080266
Bq         0.7511926572    -0.3203692998     0.7252260180
Bq         0.7242987879    -0.1485240782     1.4032716946
Bq         0.7550346385    -0.3449186172     0.6283623499
Bq         0.7204568065    -0.1239747608     1.5001353627
Bq         0.7588766198    -0.3694679346     0.5314986818

1
2
3
4
5
6
7
8
9
10
11
12
13
14
15
16
17
18
19
20
21
22
23
24
25
26
27
28
29
30
31
32
33
34
35
36
37
38
39
40
41
42
43
44
45
46
47
48
49
50
51
52
53
54
55
56
57
58
59
60
61
62
63
64
65
66
67
68
69
70
71
72
73
74
75
76
77
78
79
80
81
82
83
84
85
86
87
88
89
90
91
92
93
94
95
96
97
98
99
100
101
102
103
104
105
106
107
108
109
110
111
112
113
114
115
116
117
118
119
120
121
122
123
124
125
126
127
128
129
130
131
132
133
134
135
136
137
138
139
140
141
142
143
144
145
146
147
148
149
150
151
152
153
154
155
156
157
158
159
160
161
162
163
164
165
166
167
168
169
170
171
172
173
174
175
176
177
178
179
180
181
182
183
184
185
186
187
188
189
190
191
192
193
194
195
196
197
198
199
200
201
202
203
204
205
206
207
208
209
210
211
212
213
214
215
216
217
218
219
220
221
222
223
224
225
226
227
228
229
230
231
232
233
234
235
236

