%nproc=8
%mem=1000MB
# rb3lyp/6-311+g** NMR geom=connectivity

Title

0 1
C    -4.0500558   -0.5771862    0.8136712
H    -5.0263804   -1.0082727    1.0024760
C    -3.9381552    0.6617804    0.2400876
H    -4.8252424    1.2338890   -0.0111295
C    -2.6768410    1.2433246    0.0057578
C    -1.4974121    0.5051527    0.2848253
C    -1.6508332   -0.7338728    0.9404026
H    -0.7713646   -1.2730967    1.2633753
C    -2.8898548   -1.2624035    1.1994307
H    -2.9683706   -2.2124563    1.7152676
C    -2.5773185    2.5963696   -0.4192930
H    -3.4870728    3.1412239   -0.6474055
C    -1.3741895    3.2147896   -0.4364030
H    -1.2997315    4.2742019   -0.6578144
C    -0.1719488    2.4994090   -0.1734588
C    -0.2043917    1.1018437    0.0192689
C     1.0513491    3.2042560   -0.0676222
H     1.0427344    4.2819499   -0.1896997
C     2.1942091    2.5487446    0.2579577
H     3.1168527    3.0912848    0.4334727
C     2.2216473    1.1336562    0.2934990
C     1.0486931    0.3945528    0.0302412
C     3.4483363    0.4614633    0.5573939
H     4.3095794    1.0606054    0.8334846
C     3.5427346   -0.8855926    0.4749463
H     4.4731467   -1.3939704    0.7038822
C     2.4490052   -1.6474447   -0.0196319
C     1.2150704   -1.0057258   -0.3013573
C     0.2531113   -1.7434440   -1.0216591
H    -0.6541356   -1.2535051   -1.3462847
C     0.4494193   -3.0628597   -1.3413779
H    -0.3083162   -3.5944309   -1.9054060
C     1.6251726   -3.7207967   -0.9552541
H     1.7670048   -4.7687404   -1.1927019
C     2.6109872   -3.0144177   -0.3183050
H     3.5525612   -3.4902813   -0.0646367
Bq         0.3209778843    -0.7537061893     0.2937966064
Bq         0.4236933416    -0.6967955532    -0.0885784899
Bq         0.2952990200    -0.7679338484     0.3893903805
Bq         0.4493722059    -0.6825678942    -0.1841722640
Bq         0.2696201557    -0.7821615074     0.4849841546
Bq         0.4750510703    -0.6683402352    -0.2797660381
Bq         0.2439412914    -0.7963891664     0.5805779287
Bq         0.5007299346    -0.6541125761    -0.3753598122
Bq         0.3723356130    -0.7252508713     0.1026090582
Bq         0.3429656981    -0.6404958363     0.2119433719
Bq         0.3943234268    -0.6120405182     0.0207558237
Bq         0.3172868338    -0.6547234953     0.3075371460
Bq         0.4200022911    -0.5978128592    -0.0748379504
Bq         0.2916079695    -0.6689511543     0.4031309201
Bq         0.4456811554    -0.5835852002    -0.1704317245
Bq         0.2659291052    -0.6831788134     0.4987246942
Bq         0.4713600197    -0.5693575411    -0.2660254986
Bq         0.2402502408    -0.6974064724     0.5943184683
Bq         0.4970388841    -0.5551298821    -0.3616192727
Bq         0.3686445624    -0.6262681772     0.1163495978
Bq         0.3392746476    -0.5415131422     0.2256839115
Bq         0.3906323762    -0.5130578242     0.0344963633
Bq         0.3135957833    -0.5557408013     0.3212776856
Bq         0.4163112406    -0.4988301652    -0.0610974108
Bq         0.2879169189    -0.5699684603     0.4168714596
Bq         0.4419901049    -0.4846025061    -0.1566911849
Bq         0.2622380546    -0.5841961193     0.5124652337
Bq         0.4676689692    -0.4703748471    -0.2522849590
Bq         0.2365591903    -0.5984237784     0.6080590078
Bq         0.4933478335    -0.4561471881    -0.3478787331
Bq         0.3649535119    -0.5272854832     0.1300901374
Bq         0.3355835970    -0.4425304482     0.2394244510
Bq         0.3869413257    -0.4140751301     0.0482369028
Bq         0.3099047327    -0.4567581072     0.3350182251
Bq         0.4126201900    -0.3998474711    -0.0473568713
Bq         0.2842258684    -0.4709857663     0.4306119992
Bq         0.4382990543    -0.3856198121    -0.1429506454
Bq         0.2585470041    -0.4852134253     0.5262057733
Bq         0.4639779187    -0.3713921531    -0.2385444195
Bq         0.2328681398    -0.4994410843     0.6217995474
Bq         0.4896567830    -0.3571644940    -0.3341381935
Bq         0.3612624614    -0.4283027892     0.1438306769
Bq         0.3318925465    -0.3435477542     0.2531649906
Bq         0.3832502752    -0.3150924361     0.0619774424
Bq         0.3062136822    -0.3577754132     0.3487587647
Bq         0.4089291395    -0.3008647771    -0.0336163317
Bq         0.2805348179    -0.3720030722     0.4443525388
Bq         0.4346080038    -0.2866371181    -0.1292101058
Bq         0.2548559535    -0.3862307313     0.5399463129
Bq         0.4602868681    -0.2724094590    -0.2248038799
Bq         0.2291770892    -0.4004583903     0.6355400870
Bq         0.4859657324    -0.2581818000    -0.3203976540
Bq         0.3575714108    -0.3293200951     0.1575712165
Bq         0.3282014960    -0.2445650601     0.2669055301
Bq         0.3795592246    -0.2161097421     0.0757179819
Bq         0.3025226317    -0.2587927192     0.3624993042
Bq         0.4052380889    -0.2018820830    -0.0198757921
Bq         0.2768437673    -0.2730203782     0.4580930783
Bq         0.4309169533    -0.1876544240    -0.1154695662
Bq         0.2511649030    -0.2872480372     0.5536868524
Bq         0.4565958176    -0.1734267650    -0.2110633403
Bq         0.2254860387    -0.3014756962     0.6492806265
Bq         0.4822746819    -0.1591991060    -0.3066571144
Bq         0.3538803603    -0.2303374011     0.1713117560
Bq         0.3245104454    -0.1455823661     0.2806460697
Bq         0.3758681741    -0.1171270480     0.0894585215
Bq         0.2988315811    -0.1598100251     0.3762398438
Bq         0.4015470384    -0.1028993890    -0.0061352526
Bq         0.2731527168    -0.1740376842     0.4718336179
Bq         0.4272259027    -0.0886717300    -0.1017290267
Bq         0.2474738525    -0.1882653432     0.5674273920
Bq         0.4529047671    -0.0744440710    -0.1973228008
Bq         0.2217949882    -0.2024930022     0.6630211661
Bq         0.4785836314    -0.0602164119    -0.2929165749
Bq         0.3501893098    -0.1313547071     0.1850522956
Bq         0.3208193949    -0.0465996721     0.2943866093
Bq         0.3721771236    -0.0181443540     0.1031990611
Bq         0.2951405306    -0.0608273311     0.3899803833
Bq         0.3978559879    -0.0039166950     0.0076052870
Bq         0.2694616663    -0.0750549901     0.4855741574
Bq         0.4235348522     0.0103109641    -0.0879884871
Bq         0.2437828019    -0.0892826491     0.5811679315
Bq         0.4492137165     0.0245386231    -0.1835822612
Bq         0.2181039376    -0.1035103082     0.6767617056
Bq         0.4748925808     0.0387662821    -0.2791760353
Bq         0.3464982592    -0.0323720130     0.1987928352
Bq         0.3171283444     0.0523830220     0.3081271488
Bq         0.3684860730     0.0808383400     0.1169396006
Bq         0.2914494800     0.0381553629     0.4037209229
Bq         0.3941649373     0.0950659991     0.0213458265
Bq         0.2657706157     0.0239277039     0.4993146970
Bq         0.4198438017     0.1092936581    -0.0742479476
Bq         0.2400917514     0.0097000449     0.5949084711
Bq         0.4455226660     0.1235213171    -0.1698417217
Bq         0.2144128871    -0.0045276141     0.6905022452
Bq         0.4712015303     0.1377489761    -0.2654354958
Bq         0.3428072087     0.0666106810     0.2125333747
Bq         0.3134372938     0.1513657160     0.3218676884
Bq         0.3647950225     0.1798210341     0.1306801402
Bq         0.2877584295     0.1371380570     0.4174614625
Bq         0.3904738868     0.1940486931     0.0350863661
Bq         0.2620795652     0.1229103980     0.5130552366
Bq         0.4161527511     0.2082763521    -0.0605074080
Bq         0.2364007009     0.1086827389     0.6086490107
Bq         0.4418316154     0.2225040112    -0.1561011821
Bq         0.2107218365     0.0944550799     0.7042427848
Bq         0.4675104798     0.2367316702    -0.2516949562
Bq         0.3391161582     0.1655933750     0.2262739143
Bq         0.3097462433     0.2503484100     0.3356082279
Bq         0.3611039719     0.2788037281     0.1444206797
Bq         0.2840673790     0.2361207510     0.4312020020
Bq         0.3867828363     0.2930313871     0.0488269056
Bq         0.2583885147     0.2218930920     0.5267957761
Bq         0.4124617006     0.3072590462    -0.0467668684
Bq         0.2327096503     0.2076654330     0.6223895502
Bq         0.4381405649     0.3214867052    -0.1423606425
Bq         0.2070307860     0.1934377739     0.7179833243
Bq         0.4638194292     0.3357143642    -0.2379544166
Bq         0.3354251076     0.2645760691     0.2400144538
Bq         0.3060551928     0.3493311041     0.3493487675
Bq         0.3574129214     0.3777864221     0.1581612193
Bq         0.2803763284     0.3351034451     0.4449425416
Bq         0.3830917857     0.3920140812     0.0625674452
Bq         0.2546974641     0.3208757860     0.5405363157
Bq         0.4087706501     0.4062417402    -0.0330263289
Bq         0.2290185998     0.3066481270     0.6361300898
Bq         0.4344495144     0.4204693992    -0.1286201030
Bq         0.2033397355     0.2924204680     0.7317238639
Bq         0.4601283787     0.4346970583    -0.2242138771
Bq         0.3317340571     0.3635587631     0.2537549934
Bq         0.3023641422     0.4483137981     0.3630893070
Bq         0.3537218709     0.4767691162     0.1719017589
Bq         0.2766852779     0.4340861391     0.4586830811
Bq         0.3794007352     0.4909967752     0.0763079848
Bq         0.2510064136     0.4198584801     0.5542768552
Bq         0.4050795995     0.5052244342    -0.0192857893
Bq         0.2253275493     0.4056308210     0.6498706293
Bq         0.4307584638     0.5194520933    -0.1148795634
Bq         0.1996486849     0.3914031620     0.7454644034
Bq         0.4564373282     0.5336797523    -0.2104733375
Bq         0.3280430066     0.4625414571     0.2674955330
Bq         0.2986730917     0.5472964922     0.3768298466
Bq         0.3500308203     0.5757518102     0.1856422984
Bq         0.2729942274     0.5330688331     0.4724236207
Bq         0.3757096847     0.5899794692     0.0900485243
Bq         0.2473153631     0.5188411741     0.5680173948
Bq         0.4013885490     0.6042071283    -0.0055452498
Bq         0.2216364987     0.5046135151     0.6636111689
Bq         0.4270674133     0.6184347873    -0.1011390239
Bq         0.1959576344     0.4903858560     0.7592049430
Bq         0.4527462776     0.6326624463    -0.1967327980
Bq         0.3243519560     0.5615241512     0.2812360725
Bq         0.2949820412     0.6462791862     0.3905703862
Bq         0.3463397698     0.6747345042     0.1993828380
Bq         0.2693031768     0.6320515272     0.4861641603
Bq         0.3720186341     0.6889621633     0.1037890639
Bq         0.2436243125     0.6178238681     0.5817579344
Bq         0.3976974985     0.7031898223     0.0081952898
Bq         0.2179454482     0.6035962091     0.6773517085
Bq         0.4233763628     0.7174174813    -0.0873984843
Bq         0.1922665839     0.5893685501     0.7729454825
Bq         0.4490552271     0.7316451404    -0.1829922584
Bq         0.3206609055     0.6605068452     0.2949766121
Bq         0.2912909906     0.7452618802     0.4043109257
Bq         0.3426487193     0.7737171983     0.2131233775
Bq         0.2656121263     0.7310342212     0.4999046998
Bq         0.3683275836     0.7879448573     0.1175296034
Bq         0.2399332620     0.7168065622     0.5954984739
Bq         0.3940064479     0.8021725163     0.0219358293
Bq         0.2142543977     0.7025789031     0.6910922480
Bq         0.4196853122     0.8164001754    -0.0736579447
Bq         0.1885755333     0.6883512441     0.7866860221
Bq         0.4453641766     0.8306278344    -0.1692517188
Bq         0.3169698549     0.7594895393     0.3087171516
Bq         0.2875999401     0.8442445743     0.4180514653
Bq         0.3389576687     0.8726998923     0.2268639171
Bq         0.2619210758     0.8300169152     0.5136452394
Bq         0.3646365331     0.8869275513     0.1312701430
Bq         0.2362422114     0.8157892562     0.6092390135
Bq         0.3903153974     0.9011552104     0.0356763689
Bq         0.2105633471     0.8015615972     0.7048327876
Bq         0.4159942617     0.9153828694    -0.0599174052
Bq         0.1848844828     0.7873339381     0.8004265617
Bq         0.4416731260     0.9296105284    -0.1555111793
Bq         0.3132788044     0.8584722333     0.3224576912
Bq         0.2839088896     0.9432272683     0.4317920048
Bq         0.3352666182     0.9716825864     0.2406044567
Bq         0.2582300252     0.9289996093     0.5273857789
Bq         0.3609454825     0.9859102454     0.1450106826
Bq         0.2325511609     0.9147719502     0.6229795530
Bq         0.3866243468     1.0001379044     0.0494169085
Bq         0.2068722966     0.9005442912     0.7185733271
Bq         0.4123032112     1.0143655634    -0.0461768656
Bq         0.1811934323     0.8863166322     0.8141671012
Bq         0.4379820755     1.0285932225    -0.1417706397
Bq         0.3095877539     0.9574549273     0.3361982307
Bq         0.2802178390     1.0422099623     0.4455325444
Bq         0.3315755677     1.0706652804     0.2543449962
Bq         0.2545389747     1.0279823033     0.5411263185
Bq         0.3572544320     1.0848929394     0.1587512221

1
2
3
4
5
6
7
8
9
10
11
12
13
14
15
16
17
18
19
20
21
22
23
24
25
26
27
28
29
30
31
32
33
34
35
36
37
38
39
40
41
42
43
44
45
46
47
48
49
50
51
52
53
54
55
56
57
58
59
60
61
62
63
64
65
66
67
68
69
70
71
72
73
74
75
76
77
78
79
80
81
82
83
84
85
86
87
88
89
90
91
92
93
94
95
96
97
98
99
100
101
102
103
104
105
106
107
108
109
110
111
112
113
114
115
116
117
118
119
120
121
122
123
124
125
126
127
128
129
130
131
132
133
134
135
136
137
138
139
140
141
142
143
144
145
146
147
148
149
150
151
152
153
154
155
156
157
158
159
160
161
162
163
164
165
166
167
168
169
170
171
172
173
174
175
176
177
178
179
180
181
182
183
184
185
186
187
188
189
190
191
192
193
194
195
196
197
198
199
200
201
202
203
204
205
206
207
208
209
210
211
212
213
214
215
216
217
218
219
220
221
222
223
224
225
226
227
228
229
230
231
232
233
234
235
236

