%nproc=8
%mem=1000MB
# rb3lyp/6-311+g** NMR geom=connectivity

Title

0 1
C    -4.0500558   -0.5771862    0.8136712
H    -5.0263804   -1.0082727    1.0024760
C    -3.9381552    0.6617804    0.2400876
H    -4.8252424    1.2338890   -0.0111295
C    -2.6768410    1.2433246    0.0057578
C    -1.4974121    0.5051527    0.2848253
C    -1.6508332   -0.7338728    0.9404026
H    -0.7713646   -1.2730967    1.2633753
C    -2.8898548   -1.2624035    1.1994307
H    -2.9683706   -2.2124563    1.7152676
C    -2.5773185    2.5963696   -0.4192930
H    -3.4870728    3.1412239   -0.6474055
C    -1.3741895    3.2147896   -0.4364030
H    -1.2997315    4.2742019   -0.6578144
C    -0.1719488    2.4994090   -0.1734588
C    -0.2043917    1.1018437    0.0192689
C     1.0513491    3.2042560   -0.0676222
H     1.0427344    4.2819499   -0.1896997
C     2.1942091    2.5487446    0.2579577
H     3.1168527    3.0912848    0.4334727
C     2.2216473    1.1336562    0.2934990
C     1.0486931    0.3945528    0.0302412
C     3.4483363    0.4614633    0.5573939
H     4.3095794    1.0606054    0.8334846
C     3.5427346   -0.8855926    0.4749463
H     4.4731467   -1.3939704    0.7038822
C     2.4490052   -1.6474447   -0.0196319
C     1.2150704   -1.0057258   -0.3013573
C     0.2531113   -1.7434440   -1.0216591
H    -0.6541356   -1.2535051   -1.3462847
C     0.4494193   -3.0628597   -1.3413779
H    -0.3083162   -3.5944309   -1.9054060
C     1.6251726   -3.7207967   -0.9552541
H     1.7670048   -4.7687404   -1.1927019
C     2.6109872   -3.0144177   -0.3183050
H     3.5525612   -3.4902813   -0.0646367
Bq         3.7378986519    -1.0364266124     1.0649785763
Bq         3.7892563805    -1.0079712944     0.8737910281
Bq         3.7122197876    -1.0506542714     1.1605723504
Bq         3.8149352449    -0.9937436353     0.7781972540
Bq         3.6865409232    -1.0648819305     1.2561661245
Bq         3.8406141092    -0.9795159763     0.6826034799
Bq         3.6608620589    -1.0791095895     1.3517598986
Bq         3.8662929735    -0.9652883173     0.5870097058
Bq         3.6351831946    -1.0933372485     1.4473536727
Bq         3.8919718378    -0.9510606583     0.4914159317
Bq         3.7635775162    -1.0221989534     0.9693848022
Bq         3.7342076014    -0.9374439184     1.0787191158
Bq         3.7855653300    -0.9089886003     0.8875315676
Bq         3.7085287370    -0.9516715774     1.1743128899
Bq         3.8112441943    -0.8947609413     0.7919377936
Bq         3.6828498727    -0.9658992364     1.2699066640
Bq         3.8369230586    -0.8805332823     0.6963440195
Bq         3.6571710084    -0.9801268955     1.3655004381
Bq         3.8626019230    -0.8663056232     0.6007502454
Bq         3.6314921441    -0.9943545545     1.4610942122
Bq         3.8882807873    -0.8520779642     0.5051564713
Bq         3.7598864657    -0.9232162594     0.9831253417
Bq         3.7305165508    -0.8384612243     1.0924596554
Bq         3.7818742795    -0.8100059063     0.9012721072
Bq         3.7048376865    -0.8526888834     1.1880534295
Bq         3.8075531438    -0.7957782473     0.8056783331
Bq         3.6791588222    -0.8669165424     1.2836472036
Bq         3.8332320081    -0.7815505882     0.7100845590
Bq         3.6534799579    -0.8811442014     1.3792409777
Bq         3.8589108724    -0.7673229292     0.6144907849
Bq         3.6278010935    -0.8953718605     1.4748347518
Bq         3.8845897368    -0.7530952702     0.5188970108
Bq         3.7561954151    -0.8242335653     0.9968658813
Bq         3.7268255003    -0.7394785303     1.1062001950
Bq         3.7781832289    -0.7110232123     0.9150126468
Bq         3.7011466360    -0.7537061893     1.2017939691
Bq         3.8038620933    -0.6967955532     0.8194188727
Bq         3.6754677716    -0.7679338484     1.2973877431
Bq         3.8295409576    -0.6825678942     0.7238250986
Bq         3.6497889073    -0.7821615074     1.3929815172
Bq         3.8552198219    -0.6683402352     0.6282313245
Bq         3.6241100430    -0.7963891664     1.4885752913
Bq         3.8808986862    -0.6541125761     0.5326375504
Bq         3.7525043646    -0.7252508713     1.0106064209
Bq         3.7231344497    -0.6404958363     1.1199407345
Bq         3.7744921784    -0.6120405182     0.9287531863
Bq         3.6974555854    -0.6547234953     1.2155345086
Bq         3.8001710427    -0.5978128592     0.8331594122
Bq         3.6717767211    -0.6689511543     1.3111282827
Bq         3.8258499070    -0.5835852002     0.7375656381
Bq         3.6460978568    -0.6831788134     1.4067220568
Bq         3.8515287714    -0.5693575411     0.6419718640
Bq         3.6204189925    -0.6974064724     1.5023158309
Bq         3.8772076357    -0.5551298821     0.5463780899
Bq         3.7488133141    -0.6262681772     1.0243469604
Bq         3.7194433992    -0.5415131422     1.1336812741
Bq         3.7708011279    -0.5130578242     0.9424937259
Bq         3.6937645349    -0.5557408013     1.2292750482
Bq         3.7964799922    -0.4988301652     0.8468999518
Bq         3.6680856706    -0.5699684603     1.3248688223
Bq         3.8221588565    -0.4846025061     0.7513061777
Bq         3.6424068062    -0.5841961193     1.4204625964
Bq         3.8478377208    -0.4703748471     0.6557124036
Bq         3.6167279419    -0.5984237784     1.5160563705
Bq         3.8735165851    -0.4561471881     0.5601186295
Bq         3.7451222635    -0.5272854832     1.0380875000
Bq         3.7157523487    -0.4425304482     1.1474218136
Bq         3.7671100773    -0.4140751301     0.9562342654
Bq         3.6900734844    -0.4567581072     1.2430155877
Bq         3.7927889416    -0.3998474711     0.8606404913
Bq         3.6643946200    -0.4709857663     1.3386093618
Bq         3.8184678060    -0.3856198121     0.7650467173
Bq         3.6387157557    -0.4852134253     1.4342031359
Bq         3.8441466703    -0.3713921531     0.6694529432
Bq         3.6130368914    -0.4994410843     1.5297969100
Bq         3.8698255346    -0.3571644940     0.5738591691
Bq         3.7414312130    -0.4283027892     1.0518280395
Bq         3.7120612981    -0.3435477542     1.1611623532
Bq         3.7634190268    -0.3150924361     0.9699748050
Bq         3.6863824338    -0.3577754132     1.2567561273
Bq         3.7890978911    -0.3008647771     0.8743810309
Bq         3.6607035695    -0.3720030722     1.3523499014
Bq         3.8147767554    -0.2866371181     0.7787872568
Bq         3.6350247052    -0.3862307313     1.4479436755
Bq         3.8404556198    -0.2724094590     0.6831934827
Bq         3.6093458409    -0.4004583903     1.5435374496
Bq         3.8661344841    -0.2581818000     0.5875997086
Bq         3.7377401625    -0.3293200951     1.0655685791
Bq         3.7083702476    -0.2445650601     1.1749028928
Bq         3.7597279763    -0.2161097421     0.9837153446
Bq         3.6826913833    -0.2587927192     1.2704966668
Bq         3.7854068406    -0.2018820830     0.8881215705
Bq         3.6570125190    -0.2730203782     1.3660904409
Bq         3.8110857049    -0.1876544240     0.7925277964
Bq         3.6313336546    -0.2872480372     1.4616842150
Bq         3.8367645692    -0.1734267650     0.6969340223
Bq         3.6056547903    -0.3014756962     1.5572779891
Bq         3.8624434335    -0.1591991060     0.6013402482
Bq         3.7340491119    -0.2303374011     1.0793091187
Bq         3.7046791971    -0.1455823661     1.1886434323
Bq         3.7560369257    -0.1171270480     0.9974558841
Bq         3.6790003327    -0.1598100251     1.2842372064
Bq         3.7817157900    -0.1028993890     0.9018621100
Bq         3.6533214684    -0.1740376842     1.3798309805
Bq         3.8073946544    -0.0886717300     0.8062683359
Bq         3.6276426041    -0.1882653432     1.4754247546
Bq         3.8330735187    -0.0744440710     0.7106745618
Bq         3.6019637398    -0.2024930022     1.5710185287
Bq         3.8587523830    -0.0602164119     0.6150807877
Bq         3.7303580614    -0.1313547071     1.0930496582
Bq         3.7009881465    -0.0465996721     1.2023839719
Bq         3.7523458752    -0.0181443540     1.0111964237
Bq         3.6753092822    -0.0608273311     1.2979777460
Bq         3.7780247395    -0.0039166950     0.9156026496
Bq         3.6496304179    -0.0750549901     1.3935715201
Bq         3.8037036038     0.0103109641     0.8200088755
Bq         3.6239515536    -0.0892826491     1.4891652942
Bq         3.8293824681     0.0245386231     0.7244151014
Bq         3.5982726892    -0.1035103082     1.5847590682
Bq         3.8550613325     0.0387662821     0.6288213273
Bq         3.7266670109    -0.0323720130     1.1067901978
Bq         3.6972970960     0.0523830220     1.2161245114
Bq         3.7486548246     0.0808383400     1.0249369632
Bq         3.6716182317     0.0381553629     1.3117182855
Bq         3.7743336890     0.0950659991     0.9293431891
Bq         3.6459393674     0.0239277039     1.4073120596
Bq         3.8000125533     0.1092936581     0.8337494150
Bq         3.6202605030     0.0097000449     1.5029058337
Bq         3.8256914176     0.1235213171     0.7381556410
Bq         3.5945816387    -0.0045276141     1.5984996078
Bq         3.8513702819     0.1377489761     0.6425618669
Bq         3.7229759603     0.0666106810     1.1205307373
Bq         3.6936060455     0.1513657160     1.2298650510
Bq         3.7449637741     0.1798210341     1.0386775028
Bq         3.6679271811     0.1371380570     1.3254588251
Bq         3.7706426384     0.1940486931     0.9430837287
Bq         3.6422483168     0.1229103980     1.4210525992
Bq         3.7963215028     0.2082763521     0.8474899546
Bq         3.6165694525     0.1086827389     1.5166463733
Bq         3.8220003671     0.2225040112     0.7518961805
Bq         3.5908905882     0.0944550799     1.6122401474
Bq         3.8476792314     0.2367316702     0.6563024064
Bq         3.7192849098     0.1655933750     1.1342712769
Bq         3.6899149949     0.2503484100     1.2436055905
Bq         3.7412727236     0.2788037281     1.0524180424
Bq         3.6642361306     0.2361207510     1.3391993646
Bq         3.7669515879     0.2930313871     0.9568242683
Bq         3.6385572663     0.2218930920     1.4347931387
Bq         3.7926304522     0.3072590462     0.8612304942
Bq         3.6128784020     0.2076654330     1.5303869128
Bq         3.8183093165     0.3214867052     0.7656367201
Bq         3.5871995376     0.1934377739     1.6259806869
Bq         3.8439881809     0.3357143642     0.6700429460
Bq         3.7155938593     0.2645760691     1.1480118165
Bq         3.6862239444     0.3493311041     1.2573461301
Bq         3.7375816730     0.3777864221     1.0661585819
Bq         3.6605450801     0.3351034451     1.3529399042
Bq         3.7632605374     0.3920140812     0.9705648078
Bq         3.6348662157     0.3208757860     1.4485336783
Bq         3.7889394017     0.4062417402     0.8749710337
Bq         3.6091873514     0.3066481270     1.5441274524
Bq         3.8146182660     0.4204693992     0.7793772596
Bq         3.5835084871     0.2924204680     1.6397212265
Bq         3.8402971303     0.4346970583     0.6837834855
Bq         3.7119028087     0.3635587631     1.1617523560
Bq         3.6825328939     0.4483137981     1.2710866697
Bq         3.7338906225     0.4767691162     1.0798991215
Bq         3.6568540295     0.4340861391     1.3666804438
Bq         3.7595694868     0.4909967752     0.9843053474
Bq         3.6311751652     0.4198584801     1.4622742179
Bq         3.7852483511     0.5052244342     0.8887115733
Bq         3.6054963009     0.4056308210     1.5578679919
Bq         3.8109272155     0.5194520933     0.7931177992
Bq         3.5798174366     0.3914031620     1.6534617660
Bq         3.8366060798     0.5336797523     0.6975240251
Bq         3.7082117582     0.4625414571     1.1754928956
Bq         3.6788418433     0.5472964922     1.2848272092
Bq         3.7301995720     0.5757518102     1.0936396610
Bq         3.6531629790     0.5330688331     1.3804209833
Bq         3.7558784363     0.5899794692     0.9980458869
Bq         3.6274841147     0.5188411741     1.4760147574
Bq         3.7815573006     0.6042071283     0.9024521128
Bq         3.6018052504     0.5046135151     1.5716085315
Bq         3.8072361649     0.6184347873     0.8068583387
Bq         3.5761263860     0.4903858560     1.6672023056
Bq         3.8329150293     0.6326624463     0.7112645647
Bq         3.7045207076     0.5615241512     1.1892334351
Bq         3.6751507928     0.6462791862     1.2985677488
Bq         3.7265085214     0.6747345042     1.1073802006
Bq         3.6494719285     0.6320515272     1.3941615229
Bq         3.7521873858     0.6889621633     1.0117864265
Bq         3.6237930641     0.6178238681     1.4897552970
Bq         3.7778662501     0.7031898223     0.9161926524
Bq         3.5981141998     0.6035962091     1.5853490711
Bq         3.8035451144     0.7174174813     0.8205988783
Bq         3.5724353355     0.5893685501     1.6809428452
Bq         3.8292239787     0.7316451404     0.7250051042
Bq         3.7008296571     0.6605068452     1.2029739747
Bq         3.6714597423     0.7452618802     1.3123082883
Bq         3.7228174709     0.7737171983     1.1211207402

1
2
3
4
5
6
7
8
9
10
11
12
13
14
15
16
17
18
19
20
21
22
23
24
25
26
27
28
29
30
31
32
33
34
35
36
37
38
39
40
41
42
43
44
45
46
47
48
49
50
51
52
53
54
55
56
57
58
59
60
61
62
63
64
65
66
67
68
69
70
71
72
73
74
75
76
77
78
79
80
81
82
83
84
85
86
87
88
89
90
91
92
93
94
95
96
97
98
99
100
101
102
103
104
105
106
107
108
109
110
111
112
113
114
115
116
117
118
119
120
121
122
123
124
125
126
127
128
129
130
131
132
133
134
135
136
137
138
139
140
141
142
143
144
145
146
147
148
149
150
151
152
153
154
155
156
157
158
159
160
161
162
163
164
165
166
167
168
169
170
171
172
173
174
175
176
177
178
179
180
181
182
183
184
185
186
187
188
189
190
191
192
193
194
195
196
197
198
199
200
201
202
203
204
205
206
207
208
209
210
211
212
213
214
215
216
217
218
219
220
221
222
223
224
225
226
227
228
229
230
231
232
233
234
235
236

