%nproc=8
%mem=1000MB
# rb3lyp/6-311+g** NMR geom=connectivity

Title

0 1
C    -4.0500558   -0.5771862    0.8136712
H    -5.0263804   -1.0082727    1.0024760
C    -3.9381552    0.6617804    0.2400876
H    -4.8252424    1.2338890   -0.0111295
C    -2.6768410    1.2433246    0.0057578
C    -1.4974121    0.5051527    0.2848253
C    -1.6508332   -0.7338728    0.9404026
H    -0.7713646   -1.2730967    1.2633753
C    -2.8898548   -1.2624035    1.1994307
H    -2.9683706   -2.2124563    1.7152676
C    -2.5773185    2.5963696   -0.4192930
H    -3.4870728    3.1412239   -0.6474055
C    -1.3741895    3.2147896   -0.4364030
H    -1.2997315    4.2742019   -0.6578144
C    -0.1719488    2.4994090   -0.1734588
C    -0.2043917    1.1018437    0.0192689
C     1.0513491    3.2042560   -0.0676222
H     1.0427344    4.2819499   -0.1896997
C     2.1942091    2.5487446    0.2579577
H     3.1168527    3.0912848    0.4334727
C     2.2216473    1.1336562    0.2934990
C     1.0486931    0.3945528    0.0302412
C     3.4483363    0.4614633    0.5573939
H     4.3095794    1.0606054    0.8334846
C     3.5427346   -0.8855926    0.4749463
H     4.4731467   -1.3939704    0.7038822
C     2.4490052   -1.6474447   -0.0196319
C     1.2150704   -1.0057258   -0.3013573
C     0.2531113   -1.7434440   -1.0216591
H    -0.6541356   -1.2535051   -1.3462847
C     0.4494193   -3.0628597   -1.3413779
H    -0.3083162   -3.5944309   -1.9054060
C     1.6251726   -3.7207967   -0.9552541
H     1.7670048   -4.7687404   -1.1927019
C     2.6109872   -3.0144177   -0.3183050
H     3.5525612   -3.4902813   -0.0646367
Bq        -2.3113453776     3.1694646500    -0.2807162211
Bq        -2.3382392469     3.3413098716     0.3973294555
Bq        -2.3075033962     3.1449153326    -0.3775798892
Bq        -2.3420812282     3.3658591890     0.4941931236
Bq        -2.3036614149     3.1203660152    -0.4744435573
Bq        -2.3228713216     3.2431126021     0.0098747831
Bq        -2.3257403487     3.3646017514     0.0822084218
Bq        -2.3180563860     3.3155031167    -0.1115189144
Bq        -2.3295823300     3.3891510688     0.1790720899
Bq        -2.3142144047     3.2909537993    -0.2083825825
Bq        -2.3334243113     3.4137003862     0.2759357580
Bq        -2.3103724233     3.2664044819    -0.3052462506
Bq        -2.3372662926     3.4382497035     0.3727994261
Bq        -2.3065304420     3.2418551645    -0.4021099187
Bq        -2.3411082740     3.4627990209     0.4696630941
Bq        -2.3026884607     3.2173058471    -0.4989735868
Bq        -2.3218983673     3.3400524340    -0.0146552463
Bq        -2.3247673944     3.4615415833     0.0576783924
Bq        -2.3170834318     3.4124429486    -0.1360489438
Bq        -2.3286093758     3.4860909007     0.1545420604
Bq        -2.3132414505     3.3878936312    -0.2329126119
Bq        -2.3324513571     3.5106402181     0.2514057285
Bq        -2.3093994691     3.3633443138    -0.3297762800
Bq        -2.3362933384     3.5351895355     0.3482693966
Bq        -2.3055574878     3.3387949965    -0.4266399481
Bq        -2.3401353198     3.5597388528     0.4451330647
Bq        -2.3017155065     3.3142456791    -0.5235036162
Bq        -2.3209254131     3.4369922660    -0.0391852757
Bq        -2.3237944402     3.5584814153     0.0331483629
Bq        -2.3161104776     3.5093827805    -0.1605789733
Bq        -2.3276364215     3.5830307327     0.1300120310
Bq        -2.3122684962     3.4848334632    -0.2574426413
Bq        -2.3314784029     3.6075800500     0.2268756991
Bq        -2.3084265149     3.4602841458    -0.3543063094
Bq        -2.3353203842     3.6321293674     0.3237393672
Bq        -2.3045845336     3.4357348284    -0.4511699775
Bq        -2.3391623655     3.6566786848     0.4206030353
Bq        -2.3007425522     3.4111855110    -0.5480336456
Bq        -2.3199524589     3.5339320979    -0.0637153052
Bq        -2.3228214860     3.6554212472     0.0086183335
Bq        -2.3151375233     3.6063226125    -0.1851090027
Bq        -2.3266634673     3.6799705646     0.1054820016
Bq        -2.3112955420     3.5817732951    -0.2819726708
Bq        -2.3305054486     3.7045198820     0.2023456697
Bq        -2.3074535607     3.5572239777    -0.3788363389
Bq        -2.3343474300     3.7290691993     0.2992093378
Bq        -2.3036115793     3.5326746603    -0.4757000069
Bq        -2.3381894113     3.7536185167     0.3960730059
Bq        -2.2997695980     3.5081253430    -0.5725636750
Bq        -2.3189795047     3.6308719298    -0.0882453346
Bq        -2.3218485318     3.7523610792    -0.0159116959
Bq        -2.3141645691     3.7032624444    -0.2096390321
Bq        -2.3256905131     3.7769103965     0.0809519722
Bq        -2.3103225878     3.6787131270    -0.3065027002
Bq        -2.3295324944     3.8014597139     0.1778156403
Bq        -2.3064806064     3.6541638097    -0.4033663683
Bq        -2.3333744758     3.8260090313     0.2746793083
Bq        -2.3026386251     3.6296144923    -0.5002300364
Bq        -2.3372164571     3.8505583487     0.3715429764
Bq        -2.2987966438     3.6050651749    -0.5970937045
Bq        -2.3180065504     3.7278117618    -0.1127753640
Bq        -2.3208755775     3.8493009111    -0.0404417254
Bq        -2.3131916149     3.8002022763    -0.2341690615
Bq        -2.3247175589     3.8738502285     0.0564219427
Bq        -2.3093496336     3.7756529590    -0.3310327296
Bq        -2.3285595402     3.8983995458     0.1532856108
Bq        -2.3055076522     3.7511036416    -0.4278963977
Bq        -2.3324015215     3.9229488632     0.2501492789
Bq        -2.3016656709     3.7265543242    -0.5247600658
Bq        -2.3362435029     3.9474981806     0.3470129470
Bq        -2.2978236896     3.7020050068    -0.6216237339
Bq        -2.3170335962     3.8247515937    -0.1373053934
Bq        -2.3199026233     3.9462407430    -0.0649717548
Bq        -2.3122186607     3.8971421083    -0.2586990910
Bq        -2.3237446046     3.9707900604     0.0318919133
Bq        -2.3083766793     3.8725927909    -0.3555627590
Bq        -2.3275865860     3.9953393778     0.1287555814
Bq        -2.3045346980     3.8480434735    -0.4524264271
Bq        -2.3314285673     4.0198886952     0.2256192495
Bq        -2.3006927167     3.8234941562    -0.5492900952
Bq        -2.3352705486     4.0444380125     0.3224829176
Bq        -2.2968507353     3.7989448388    -0.6461537633
Bq        -2.3160606420     3.9216914257    -0.1618354229
Bq        -2.3189296691     4.0431805750    -0.0895017842
Bq        -2.3112457064     3.9940819402    -0.2832291204
Bq        -2.3227716504     4.0677298924     0.0073618839
Bq        -2.3074037251     3.9695326228    -0.3800927885
Bq        -2.3266136317     4.0922792097     0.1042255520
Bq        -2.3035617438     3.9449833055    -0.4769564566
Bq        -2.3304556131     4.1168285271     0.2010892201
Bq        -2.2997197624     3.9204339881    -0.5738201247
Bq        -2.3342975944     4.1413778445     0.2979528882
Bq        -2.2958777811     3.8958846707    -0.6706837927
Bq        -2.3150876878     4.0186312576    -0.1863654523
Bq        -2.3179567149     4.1401204069    -0.1140318136
Bq        -2.3102727522     4.0910217722    -0.3077591498
Bq        -2.3217986962     4.1646697243    -0.0171681455
Bq        -2.3064307709     4.0664724548    -0.4046228179
Bq        -2.3256406775     4.1892190417     0.0796955225
Bq        -2.3025887896     4.0419231374    -0.5014864860
Bq        -2.3294826589     4.2137683590     0.1765591906
Bq        -2.2987468082     4.0173738200    -0.5983501541
Bq        -2.3333246402     4.2383176764     0.2734228587
Bq        -2.2949048269     3.9928245027    -0.6952138222
Bq        -2.3141147335     4.1155710895    -0.2108954817
Bq        -2.3169837606     4.2370602389    -0.1385618431
Bq        -2.3092997980     4.1879616041    -0.3322891792
Bq        -2.3208257420     4.2616095562    -0.0416981750
Bq        -2.3054578167     4.1634122867    -0.4291528473
Bq        -2.3246677233     4.2861588736     0.0551654931
Bq        -2.3016158353     4.1388629694    -0.5260165154
Bq        -2.3285097046     4.3107081910     0.1520291612
Bq        -2.2977738540     4.1143136520    -0.6228801835
Bq        -2.3323516860     4.3352575084     0.2488928293
Bq        -2.2939318727     4.0897643346    -0.7197438516
Bq        -2.3131417793     4.2125109215    -0.2354255112
Bq        -2.3160108064     4.3340000708    -0.1630918725
Bq        -2.3083268438     4.2849014360    -0.3568192087
Bq        -2.3198527877     4.3585493882    -0.0662282044
Bq        -2.3044848624     4.2603521187    -0.4536828768
Bq        -2.3236947691     4.3830987055     0.0306354637
Bq        -2.3006428811     4.2358028013    -0.5505465448
Bq        -2.3275367504     4.4076480229     0.1274991318
Bq        -2.2968008998     4.2112534839    -0.6474102129
Bq        -2.3313787317     4.4321973403     0.2243627999
Bq        -2.2929589184     4.1867041665    -0.7442738810
Bq        -2.3121688251     4.3094507534    -0.2599555406
Bq        -2.3150378522     4.4309399027    -0.1876219019
Bq        -2.3073538895     4.3818412680    -0.3813492381
Bq        -2.3188798335     4.4554892201    -0.0907582338
Bq        -2.3035119082     4.3572919506    -0.4782129062
Bq        -2.3227218149     4.4800385375     0.0061054343
Bq        -2.2996699269     4.3327426332    -0.5750765743
Bq        -2.3265637962     4.5045878549     0.1029691024
Bq        -2.2958279455     4.3081933159    -0.6719402424
Bq        -2.3304057775     4.5291371722     0.1998327704
Bq        -2.2919859642     4.2836439985    -0.7688039105
Bq        -2.3111958709     4.4063905854    -0.2844855700
Bq        -2.2637641316    -0.4160516942     1.0428428333
Bq        -2.2560801689    -0.4651503290     0.8491154971
Bq        -2.2676061129    -0.3915023768     1.1397065014
Bq        -2.2522381876    -0.4896996464     0.7522518290
Bq        -2.2714480942    -0.3669530595     1.2365701695
Bq        -2.2483962063    -0.5142489637     0.6553881609
Bq        -2.2752900756    -0.3424037421     1.3334338376
Bq        -2.2445542249    -0.5387982811     0.5585244929
Bq        -2.2791320569    -0.3178544247     1.4302975057
Bq        -2.2407122436    -0.5633475985     0.4616608248
Bq        -2.2599221503    -0.4406010116     0.9459791652
Bq        -2.2627911774    -0.3191118623     1.0183128039
Bq        -2.2551072147    -0.3682104970     0.8245854677
Bq        -2.2666331587    -0.2945625449     1.1151764720
Bq        -2.2512652334    -0.3927598144     0.7277217996
Bq        -2.2704751400    -0.2700132275     1.2120401401
Bq        -2.2474232520    -0.4173091318     0.6308581315
Bq        -2.2743171213    -0.2454639102     1.3089038081
Bq        -2.2435812707    -0.4418584492     0.5339944634
Bq        -2.2781591027    -0.2209145928     1.4057674762
Bq        -2.2397392894    -0.4664077665     0.4371307953
Bq        -2.2589491960    -0.3436611797     0.9214491358
Bq        -2.2618182231    -0.2221720303     0.9937827745
Bq        -2.2541342605    -0.2712706651     0.8000554383
Bq        -2.2656602045    -0.1976227130     1.0906464425
Bq        -2.2502922791    -0.2958199825     0.7031917702
Bq        -2.2695021858    -0.1730733956     1.1875101106
Bq        -2.2464502978    -0.3203692998     0.6063281021
Bq        -2.2733441671    -0.1485240782     1.2843737787
Bq        -2.2426083165    -0.3449186172     0.5094644340
Bq        -2.2771861485    -0.1239747608     1.3812374468
Bq        -2.2387663352    -0.3694679346     0.4126007659
Bq        -2.2579762418    -0.2467213477     0.8969191064
Bq        -2.2608452689    -0.1252321984     0.9692527450
Bq        -2.2531613063    -0.1743308332     0.7755254088
Bq        -2.2646872502    -0.1006828810     1.0661164131
Bq        -2.2493193249    -0.1988801505     0.6786617408
Bq        -2.2685292316    -0.0761335637     1.1629800812
Bq        -2.2454773436    -0.2234294679     0.5817980727
Bq        -2.2723712129    -0.0515842463     1.2598437493
Bq        -2.2416353623    -0.2479787853     0.4849344046
Bq        -2.2762131942    -0.0270349289     1.3567074174
Bq        -2.2377933809    -0.2725281027     0.3880707365
Bq        -2.2570032876    -0.1497815158     0.8723890769
Bq        -2.2598723147    -0.0282923665     0.9447227156
Bq        -2.2521883520    -0.0773910012     0.7509953794
Bq        -2.2637142960    -0.0037430491     1.0415863837
Bq        -2.2483463707    -0.1019403186     0.6541317113
Bq        -2.2675562773     0.0208062683     1.1384500518
Bq        -2.2445043894    -0.1264896360     0.5572680432
Bq        -2.2713982587     0.0453555857     1.2353137199
Bq        -2.2406624080    -0.1510389533     0.4604043751
Bq        -2.2752402400     0.0699049030     1.3321773880
Bq        -2.2368204267    -0.1755882707     0.3635407071
Bq        -2.2560303334    -0.0528416838     0.8478590475
Bq        -2.2588993605     0.0686474655     0.9201926862
Bq        -2.2512153978     0.0195488307     0.7264653500
Bq        -2.2627413418     0.0931967828     1.0170563543
Bq        -2.2473734165    -0.0050004867     0.6296016819
Bq        -2.2665833231     0.1177461002     1.1139200223
Bq        -2.2435314351    -0.0295498040     0.5327380138
Bq        -2.2704253044     0.1422954176     1.2107836904

1
2
3
4
5
6
7
8
9
10
11
12
13
14
15
16
17
18
19
20
21
22
23
24
25
26
27
28
29
30
31
32
33
34
35
36
37
38
39
40
41
42
43
44
45
46
47
48
49
50
51
52
53
54
55
56
57
58
59
60
61
62
63
64
65
66
67
68
69
70
71
72
73
74
75
76
77
78
79
80
81
82
83
84
85
86
87
88
89
90
91
92
93
94
95
96
97
98
99
100
101
102
103
104
105
106
107
108
109
110
111
112
113
114
115
116
117
118
119
120
121
122
123
124
125
126
127
128
129
130
131
132
133
134
135
136
137
138
139
140
141
142
143
144
145
146
147
148
149
150
151
152
153
154
155
156
157
158
159
160
161
162
163
164
165
166
167
168
169
170
171
172
173
174
175
176
177
178
179
180
181
182
183
184
185
186
187
188
189
190
191
192
193
194
195
196
197
198
199
200
201
202
203
204
205
206
207
208
209
210
211
212
213
214
215
216
217
218
219
220
221
222
223
224
225
226
227
228
229
230
231
232
233
234
235
236

