%nproc=8
%mem=1000MB
# rb3lyp/6-311+g** NMR geom=connectivity

Title

0 1
C    -4.0500558   -0.5771862    0.8136712
H    -5.0263804   -1.0082727    1.0024760
C    -3.9381552    0.6617804    0.2400876
H    -4.8252424    1.2338890   -0.0111295
C    -2.6768410    1.2433246    0.0057578
C    -1.4974121    0.5051527    0.2848253
C    -1.6508332   -0.7338728    0.9404026
H    -0.7713646   -1.2730967    1.2633753
C    -2.8898548   -1.2624035    1.1994307
H    -2.9683706   -2.2124563    1.7152676
C    -2.5773185    2.5963696   -0.4192930
H    -3.4870728    3.1412239   -0.6474055
C    -1.3741895    3.2147896   -0.4364030
H    -1.2997315    4.2742019   -0.6578144
C    -0.1719488    2.4994090   -0.1734588
C    -0.2043917    1.1018437    0.0192689
C     1.0513491    3.2042560   -0.0676222
H     1.0427344    4.2819499   -0.1896997
C     2.1942091    2.5487446    0.2579577
H     3.1168527    3.0912848    0.4334727
C     2.2216473    1.1336562    0.2934990
C     1.0486931    0.3945528    0.0302412
C     3.4483363    0.4614633    0.5573939
H     4.3095794    1.0606054    0.8334846
C     3.5427346   -0.8855926    0.4749463
H     4.4731467   -1.3939704    0.7038822
C     2.4490052   -1.6474447   -0.0196319
C     1.2150704   -1.0057258   -0.3013573
C     0.2531113   -1.7434440   -1.0216591
H    -0.6541356   -1.2535051   -1.3462847
C     0.4494193   -3.0628597   -1.3413779
H    -0.3083162   -3.5944309   -1.9054060
C     1.6251726   -3.7207967   -0.9552541
H     1.7670048   -4.7687404   -1.1927019
C     2.6109872   -3.0144177   -0.3183050
H     3.5525612   -3.4902813   -0.0646367
Bq         0.2431777590     1.6933327286     0.9173848162
Bq         0.2739136096     1.4969381896     0.1424754715
Bq         0.2393357776     1.7178820460     1.0142484843
Bq         0.2777555909     1.4723888722     0.0456118034
Bq         0.2585456843     1.5951354591     0.5299301438
Bq         0.2556766572     1.7166246084     0.6022637825
Bq         0.2633606198     1.6675259737     0.4085364463
Bq         0.2518346758     1.7411739258     0.6991274506
Bq         0.2672026012     1.6429766563     0.3116727782
Bq         0.2479926945     1.7657232432     0.7959911187
Bq         0.2710445825     1.6184273389     0.2148091102
Bq         0.2441507132     1.7902725606     0.8928547868
Bq         0.2748865638     1.5938780216     0.1179454421
Bq         0.2403087319     1.8148218779     0.9897184549
Bq         0.2787285452     1.5693287042     0.0210817740
Bq         0.2595186385     1.6920752911     0.5054001144
Bq         0.2566496114     1.8135644404     0.5777337531
Bq         0.2643335741     1.7644658056     0.3840064169
Bq         0.2528076301     1.8381137578     0.6745974212
Bq         0.2681755554     1.7399164882     0.2871427488
Bq         0.2489656487     1.8626630751     0.7714610893
Bq         0.2720175367     1.7153671709     0.1902790807
Bq         0.2451236674     1.8872123925     0.8683247574
Bq         0.2758595180     1.6908178535     0.0934154126
Bq         0.2412816861     1.9117617099     0.9651884254
Bq         0.2797014994     1.6662685361    -0.0034482555
Bq         0.2604915927     1.7890151230     0.4808700850
Bq         0.2576225656     1.9105042723     0.5532037237
Bq         0.2653065283     1.8614056376     0.3594763875
Bq         0.2537805843     1.9350535897     0.6500673917
Bq         0.2691485096     1.8368563202     0.2626127194
Bq         0.2499386030     1.9596029071     0.7469310598
Bq         0.2729904909     1.8123070028     0.1657490513
Bq         0.2460966216     1.9841522244     0.8437947279
Bq         0.2768324723     1.7877576854     0.0688853832
Bq         0.2422546403     2.0087015418     0.9406583960
Bq         0.2806744536     1.7632083681    -0.0279782849
Bq         0.2614645470     1.8859549549     0.4563400556
Bq         0.2585955199     2.0074441043     0.5286736942
Bq         0.2662794825     1.9583454695     0.3349463580
Bq         0.2547535385     2.0319934216     0.6255373623
Bq         0.2701214638     1.9337961521     0.2380826900
Bq         0.2509115572     2.0565427390     0.7224010304
Bq         0.2739634452     1.9092468348     0.1412190219
Bq         0.2470695759     2.0810920564     0.8192646985
Bq         0.2778054265     1.8846975174     0.0443553538
Bq         0.2432275945     2.1056413738     0.9161283666
Bq         0.2816474078     1.8601482000    -0.0525083143
Bq         0.2624375012     1.9828947869     0.4318100261
Bq         0.2595684741     2.1043839362     0.5041436648
Bq         0.2672524367     2.0552853014     0.3104163286
Bq         0.2557264927     2.1289332536     0.6010073329
Bq         0.2710944181     2.0307359841     0.2135526605
Bq         0.2518845114     2.1534825709     0.6978710010
Bq         0.2749363994     2.0061866667     0.1166889924
Bq         0.2480425301     2.1780318883     0.7947346691
Bq         0.2787783807     1.9816373493     0.0198253244
Bq         0.2442005488     2.2025812057     0.8915983372
Bq         0.2826203621     1.9570880319    -0.0770383437
Bq         0.2634104554     2.0798346188     0.4072799967
Bq         0.2605414283     2.2013237681     0.4796136354
Bq         0.2682253910     2.1522251334     0.2858862992
Bq         0.2566994470     2.2258730855     0.5764773035
Bq         0.2720673723     2.1276758160     0.1890226311
Bq         0.2528574656     2.2504224029     0.6733409716
Bq         0.2759093536     2.1031264986     0.0921589630
Bq         0.2490154843     2.2749717203     0.7702046396
Bq         0.2797513349     2.0785771813    -0.0047047051
Bq         0.2451735030     2.2995210376     0.8670683077
Bq         0.2835933163     2.0540278639    -0.1015683732
Bq         0.2643834096     2.1767744508     0.3827499673
Bq         0.2615143825     2.2982636001     0.4550836059
Bq         0.2691983452     2.2491649653     0.2613562698
Bq         0.2576724012     2.3228129174     0.5519472740
Bq         0.2730403265     2.2246156479     0.1644926017
Bq         0.2538304199     2.3473622348     0.6488109421
Bq         0.2768823078     2.2000663306     0.0676289336
Bq         0.2499884385     2.3719115522     0.7456746102
Bq         0.2807242892     2.1755170132    -0.0292347345
Bq         0.2461464572     2.3964608696     0.8425382783
Bq         0.2845662705     2.1509676958    -0.1260984026
Bq         0.2653563639     2.2737142827     0.3582199379
Bq         0.2624873367     2.3952034320     0.4305535765
Bq         0.2701712994     2.3461047973     0.2368262403
Bq         0.2586453554     2.4197527494     0.5274172446
Bq         0.2740132807     2.3215554799     0.1399625723
Bq         0.2548033741     2.4443020668     0.6242809127
Bq         0.2778552621     2.2970061625     0.0430989042
Bq         0.2509613928     2.4688513841     0.7211445808
Bq         0.2816972434     2.2724568451    -0.0537647639
Bq         0.2471194114     2.4934007015     0.8180082489
Bq         0.2855392247     2.2479075278    -0.1506284320
Bq         0.2663293181     2.3706541146     0.3336899084
Bq         0.2634602910     2.4921432640     0.4060235471
Bq         0.2711442536     2.4430446292     0.2122962109
Bq         0.2596183096     2.5166925813     0.5028872152
Bq         0.2749862350     2.4184953118     0.1154325428
Bq         0.2557763283     2.5412418987     0.5997508833
Bq         0.2788282163     2.3939459944     0.0185688747
Bq         0.2519343470     2.5657912161     0.6966145514
Bq         0.2826701976     2.3693966771    -0.0782947934
Bq         0.2480923657     2.5903405335     0.7934782195
Bq         0.2865121789     2.3448473597    -0.1751584614
Bq         0.2673022723     2.4675939466     0.3091598790
Bq         0.2644332452     2.5890830959     0.3814935177
Bq         0.2721172079     2.5399844611     0.1877661815
Bq         0.2605912639     2.6136324133     0.4783571858
Bq         0.2759591892     2.5154351438     0.0909025134
Bq         0.2567492825     2.6381817306     0.5752208538
Bq         0.2798011705     2.4908858264    -0.0059611547
Bq         0.2529073012     2.6627310480     0.6720845219
Bq         0.2836431518     2.4663365090    -0.1028248228
Bq         0.2490653199     2.6872803654     0.7689481900
Bq         0.2874851332     2.4417871916    -0.1996884909
Bq         0.2682752265     2.5645337785     0.2846298496
Bq         0.2654061994     2.6860229278     0.3569634882
Bq         0.2730901621     2.6369242931     0.1632361521
Bq         0.2615642181     2.7105722452     0.4538271563
Bq         0.2769321434     2.6123749757     0.0663724840
Bq         0.2577222368     2.7351215626     0.5506908244
Bq         0.2807741247     2.5878256583    -0.0304911841
Bq         0.2538802554     2.7596708800     0.6475544925
Bq         0.2846161061     2.5632763409    -0.1273548522
Bq         0.2500382741     2.7842201973     0.7444181606
Bq         0.2884580874     2.5387270236    -0.2242185203
Bq         0.2692481808     2.6614736105     0.2600998201
Bq         0.2663791536     2.7829627598     0.3324334588
Bq         0.2740631163     2.7338641250     0.1387061226
Bq         0.2625371723     2.8075120771     0.4292971269
Bq         0.2779050976     2.7093148076     0.0418424545
Bq         0.2586951910     2.8320613945     0.5261607950
Bq         0.2817470790     2.6847654903    -0.0550212135
Bq         0.2548532097     2.8566107119     0.6230244631
Bq         0.2855890603     2.6602161729    -0.1518848816
Bq         0.2510112283     2.8811600293     0.7198881312
Bq         0.2894310416     2.6356668555    -0.2487485497
Bq         0.2702211350     2.7584134424     0.2355697907
Bq         0.2673521079     2.8799025917     0.3079034294
Bq         0.2750360705     2.8308039570     0.1141760932
Bq         0.2635101265     2.9044519091     0.4047670975
Bq         0.2788780519     2.8062546396     0.0173124251
Bq         0.2596681452     2.9290012265     0.5016307656
Bq         0.2827200332     2.7817053222    -0.0795512430
Bq         0.2558261639     2.9535505438     0.5984944337
Bq         0.2865620145     2.7571560048    -0.1764149111
Bq         0.2519841826     2.9780998612     0.6953581017
Bq         0.2904039958     2.7326066875    -0.2732785792
Bq         0.2711940892     2.8553532743     0.2110397613
Bq         0.2683250621     2.9768424236     0.2833734000
Bq         0.2760090248     2.9277437889     0.0896460638
Bq         0.2644830808     3.0013917410     0.3802370680
Bq         0.2798510061     2.9031944715    -0.0072176043
Bq         0.2606410994     3.0259410584     0.4771007361
Bq         0.2836929874     2.8786451541    -0.1040812724
Bq         0.2567991181     3.0504903758     0.5739644042
Bq         0.2875349687     2.8540958368    -0.2009449405
Bq         0.2529571368     3.0750396931     0.6708280723
Bq         0.2913769501     2.8295465194    -0.2978086086
Bq         0.2721670434     2.9522931063     0.1865097319
Bq         0.2692980163     3.0737822556     0.2588433705
Bq         0.2769819790     3.0246836208     0.0651160344
Bq         0.2654560350     3.0983315730     0.3557070386
Bq         0.2808239603     3.0001343035    -0.0317476337
Bq         0.2616140537     3.1228808903     0.4525707067
Bq         0.2846659416     2.9755849861    -0.1286113018
Bq         0.2577720723     3.1474302077     0.5494343748
Bq         0.2885079230     2.9510356687    -0.2254749699
Bq         0.2539300910     3.1719795251     0.6462980429
Bq         0.2923499043     2.9264863513    -0.3223386380
Bq         0.2731399976     3.0492329382     0.1619797024
Bq         0.2702709705     3.1707220875     0.2343133411
Bq         0.2779549332     3.1216234528     0.0405860049
Bq         0.2664289892     3.1952714049     0.3311770092
Bq         0.2817969145     3.0970741354    -0.0562776632
Bq         0.2625870079     3.2198207223     0.4280406773
Bq         0.2856388959     3.0725248180    -0.1531413313
Bq         0.2587450266     3.2443700397     0.5249043454
Bq         0.2894808772     3.0479755006    -0.2500049993
Bq         0.2549030452     3.2689193570     0.6217680135
Bq         0.2933228585     3.0234261833    -0.3468686674
Bq         0.2741129519     3.1461727701     0.1374496730
Bq         0.2712439248     3.2676619195     0.2097833117
Bq         0.2789278874     3.2185632847     0.0160559755
Bq         0.2674019434     3.2922112368     0.3066469798
Bq         0.2827698688     3.1940139673    -0.0808076926
Bq         0.2635599621     3.3167605542     0.4035106479
Bq         0.2866118501     3.1694646500    -0.1776713607
Bq         0.2597179808     3.3413098716     0.5003743159
Bq         0.2904538314     3.1449153326    -0.2745350288
Bq         0.2558759995     3.3658591890     0.5972379840
Bq         0.2942958127     3.1203660152    -0.3713986969
Bq         0.2750859061     3.2431126021     0.1129196436
Bq         0.2722168790     3.3646017514     0.1852532822
Bq         0.2799008417     3.3155031167    -0.0084740539
Bq         0.2683748977     3.3891510688     0.2821169503
Bq         0.2837428230     3.2909537993    -0.1053377220
Bq         0.2645329163     3.4137003862     0.3789806184
Bq         0.2875848043     3.2664044819    -0.2022013901
Bq         0.2606909350     3.4382497035     0.4758442865
Bq         0.2914267856     3.2418551645    -0.2990650582

1
2
3
4
5
6
7
8
9
10
11
12
13
14
15
16
17
18
19
20
21
22
23
24
25
26
27
28
29
30
31
32
33
34
35
36
37
38
39
40
41
42
43
44
45
46
47
48
49
50
51
52
53
54
55
56
57
58
59
60
61
62
63
64
65
66
67
68
69
70
71
72
73
74
75
76
77
78
79
80
81
82
83
84
85
86
87
88
89
90
91
92
93
94
95
96
97
98
99
100
101
102
103
104
105
106
107
108
109
110
111
112
113
114
115
116
117
118
119
120
121
122
123
124
125
126
127
128
129
130
131
132
133
134
135
136
137
138
139
140
141
142
143
144
145
146
147
148
149
150
151
152
153
154
155
156
157
158
159
160
161
162
163
164
165
166
167
168
169
170
171
172
173
174
175
176
177
178
179
180
181
182
183
184
185
186
187
188
189
190
191
192
193
194
195
196
197
198
199
200
201
202
203
204
205
206
207
208
209
210
211
212
213
214
215
216
217
218
219
220
221
222
223
224
225
226
227
228
229
230
231
232
233
234
235
236

