%nproc=8
%mem=1000MB
# rb3lyp/6-311+g** NMR geom=connectivity

Title

0 1
C    -4.0500558   -0.5771862    0.8136712
H    -5.0263804   -1.0082727    1.0024760
C    -3.9381552    0.6617804    0.2400876
H    -4.8252424    1.2338890   -0.0111295
C    -2.6768410    1.2433246    0.0057578
C    -1.4974121    0.5051527    0.2848253
C    -1.6508332   -0.7338728    0.9404026
H    -0.7713646   -1.2730967    1.2633753
C    -2.8898548   -1.2624035    1.1994307
H    -2.9683706   -2.2124563    1.7152676
C    -2.5773185    2.5963696   -0.4192930
H    -3.4870728    3.1412239   -0.6474055
C    -1.3741895    3.2147896   -0.4364030
H    -1.2997315    4.2742019   -0.6578144
C    -0.1719488    2.4994090   -0.1734588
C    -0.2043917    1.1018437    0.0192689
C     1.0513491    3.2042560   -0.0676222
H     1.0427344    4.2819499   -0.1896997
C     2.1942091    2.5487446    0.2579577
H     3.1168527    3.0912848    0.4334727
C     2.2216473    1.1336562    0.2934990
C     1.0486931    0.3945528    0.0302412
C     3.4483363    0.4614633    0.5573939
H     4.3095794    1.0606054    0.8334846
C     3.5427346   -0.8855926    0.4749463
H     4.4731467   -1.3939704    0.7038822
C     2.4490052   -1.6474447   -0.0196319
C     1.2150704   -1.0057258   -0.3013573
C     0.2531113   -1.7434440   -1.0216591
H    -0.6541356   -1.2535051   -1.3462847
C     0.4494193   -3.0628597   -1.3413779
H    -0.3083162   -3.5944309   -1.9054060
C     1.6251726   -3.7207967   -0.9552541
H     1.7670048   -4.7687404   -1.1927019
C     2.6109872   -3.0144177   -0.3183050
H     3.5525612   -3.4902813   -0.0646367
Bq        -1.5876284653    -2.0083314388     1.5420254967
Bq        -1.5893984431    -1.7909178537     1.9922789811
Bq        -1.5895815064    -1.6573837441     2.0388472970
Bq        -1.5888735153    -1.7443491781     1.8587459032
Bq        -1.5899355020    -1.6139010270     2.1288979938
Bq        -1.5885195197    -1.7878318951     1.7686952063
Bq        -1.5902894976    -1.5704183100     2.2189486907
Bq        -1.5881655241    -1.8313146121     1.6786445094
Bq        -1.5906434932    -1.5269355930     2.3089993876
Bq        -1.5878115286    -1.8747973291     1.5885938125
Bq        -1.5909974887    -1.4834528760     2.3990500845
Bq        -1.5874575330    -1.9182800461     1.4985431157
Bq        -1.5892275109    -1.7008664611     1.9487966001
Bq        -1.5894105742    -1.5673323514     1.9953649159
Bq        -1.5887025830    -1.6542977854     1.8152635222
Bq        -1.5897645697    -1.5238496344     2.0854156128
Bq        -1.5883485874    -1.6977805024     1.7252128253
Bq        -1.5901185653    -1.4803669174     2.1754663097
Bq        -1.5879945919    -1.7412632194     1.6351621284
Bq        -1.5904725609    -1.4368842004     2.2655170066
Bq        -1.5876405963    -1.7847459364     1.5451114315
Bq        -1.5908265565    -1.3934014834     2.3555677034
Bq        -1.5872866007    -1.8282286534     1.4550607346
Bq        -1.5890565786    -1.6108150684     1.9053142190
Bq        -1.5892396419    -1.4772809587     1.9518825349
Bq        -1.5885316507    -1.5642463927     1.7717811411
Bq        -1.5895936375    -1.4337982417     2.0419332318
Bq        -1.5881776552    -1.6077291097     1.6817304442
Bq        -1.5899476330    -1.3903155247     2.1319839287
Bq        -1.5878236596    -1.6512118267     1.5916797474
Bq        -1.5903016286    -1.3468328077     2.2220346255
Bq        -1.5874696640    -1.6946945437     1.5016290505
Bq        -1.5906556242    -1.3033500907     2.3120853224
Bq        -1.5871156684    -1.7381772607     1.4115783536
Bq        -1.5888856463    -1.5207636757     1.8618318380
Bq        -1.5890687096    -1.3872295660     1.9084001539
Bq        -1.5883607185    -1.4741950001     1.7282987601
Bq        -1.5894227052    -1.3437468490     1.9984508507
Bq        -1.5880067229    -1.5176777171     1.6382480632
Bq        -1.5897767008    -1.3002641320     2.0885015476
Bq        -1.5876527273    -1.5611604341     1.5481973663
Bq        -1.5901306963    -1.2567814150     2.1785522445
Bq        -1.5872987317    -1.6046431511     1.4581466694
Bq        -1.5904846919    -1.2132986980     2.2686029414
Bq        -1.5869447362    -1.6481258681     1.3680959726
Bq        -1.5887147140    -1.4307122830     1.8183494570
Bq        -1.5888977773    -1.2971781734     1.8649177728
Bq        -1.5881897862    -1.3841436074     1.6848163791
Bq        -1.5892517729    -1.2536954564     1.9549684697
Bq        -1.5878357906    -1.4276263244     1.5947656822
Bq        -1.5896057685    -1.2102127394     2.0450191666
Bq        -1.5874817950    -1.4711090414     1.5047149853
Bq        -1.5899597641    -1.1667300224     2.1350698635
Bq        -1.5871277995    -1.5145917584     1.4146642884
Bq        -1.5903137596    -1.1232473054     2.2251205604
Bq        -1.5867738039    -1.5580744754     1.3246135915
Bq        -1.5885437818    -1.3406608904     1.7748670759
Bq        -1.5887268451    -1.2071267807     1.8214353918
Bq        -1.5880188539    -1.2940922147     1.6413339980
Bq        -1.5890808406    -1.1636440637     1.9114860887
Bq        -1.5876648583    -1.3375749317     1.5512833011
Bq        -1.5894348362    -1.1201613467     2.0015367856
Bq        -1.5873108628    -1.3810576487     1.4612326043
Bq        -1.5897888318    -1.0766786297     2.0915874824
Bq        -1.5869568672    -1.4245403657     1.3711819074
Bq        -1.5901428274    -1.0331959127     2.1816381793
Bq        -1.5866028716    -1.4680230827     1.2811312105
Bq        -1.5883728495    -1.2506094977     1.7313846949
Bq        -1.5885559128    -1.1170753880     1.7779530108
Bq        -1.5878479216    -1.2040408220     1.5978516170
Bq        -1.5889099084    -1.0735926710     1.8680037076
Bq        -1.5874939261    -1.2475235390     1.5078009201
Bq        -1.5892639039    -1.0301099540     1.9580544045
Bq        -1.5871399305    -1.2910062560     1.4177502232
Bq        -1.5896178995    -0.9866272370     2.0481051014
Bq        -1.5867859349    -1.3344889731     1.3276995263
Bq        -1.5899718951    -0.9431445200     2.1381557983
Bq        -1.5864319393    -1.3779716901     1.2376488295
Bq        -1.5882019172    -1.1605581050     1.6879023139
Bq        -1.5883849805    -1.0270239954     1.7344706297
Bq        -1.5876769894    -1.1139894294     1.5543692360
Bq        -1.5887389761    -0.9835412784     1.8245213266
Bq        -1.5873229938    -1.1574721464     1.4643185391
Bq        -1.5890929717    -0.9400585614     1.9145720235
Bq        -1.5869689982    -1.2009548634     1.3742678422
Bq        -1.5894469672    -0.8965758443     2.0046227204
Bq        -1.5866150026    -1.2444375804     1.2842171453
Bq        -1.5898009628    -0.8530931273     2.0946734173
Bq        -1.5862610071    -1.2879202974     1.1941664484
Bq        -1.5880309849    -1.0705067124     1.6444199328
Bq        -1.5882140482    -0.9369726027     1.6909882487
Bq        -1.5875060571    -1.0239380367     1.5108868549
Bq        -1.5885680438    -0.8934898857     1.7810389456
Bq        -1.5871520615    -1.0674207537     1.4208361580
Bq        -1.5889220394    -0.8500071687     1.8710896425
Bq        -1.5867980659    -1.1109034707     1.3307854612
Bq        -1.5892760350    -0.8065244517     1.9611403393
Bq        -1.5864440704    -1.1543861877     1.2407347643
Bq        -1.5896300305    -0.7630417347     2.0511910362
Bq        -1.5860900748    -1.1978689047     1.1506840674
Bq        -1.5878600527    -0.9804553197     1.6009375518
Bq        -1.5880431160    -0.8469212100     1.6475058677
Bq        -1.5873351248    -0.9338866440     1.4674044739
Bq        -1.5883971115    -0.8034384930     1.7375565645
Bq        -1.5869811292    -0.9773693610     1.3773537770
Bq        -1.5887511071    -0.7599557760     1.8276072614
Bq        -1.5866271337    -1.0208520780     1.2873030801
Bq        -1.5891051027    -0.7164730590     1.9176579583
Bq        -1.5862731381    -1.0643347950     1.1972523832
Bq        -1.5894590983    -0.6729903420     2.0077086552
Bq        -1.5859191425    -1.1078175120     1.1072016864
Bq        -1.5876891204    -0.8904039270     1.5574551708
Bq        -1.5878721837    -0.7568698173     1.6040234866
Bq        -1.5871641925    -0.8438352514     1.4239220929
Bq        -1.5882261793    -0.7133871003     1.6940741835
Bq        -1.5868101970    -0.8873179684     1.3338713960
Bq        -1.5885801748    -0.6699043833     1.7841248804
Bq        -1.5864562014    -0.9308006854     1.2438206991
Bq        -1.5889341704    -0.6264216663     1.8741755773
Bq        -1.5861022058    -0.9742834024     1.1537700022
Bq        -1.5892881660    -0.5829389493     1.9642262742
Bq        -1.5857482102    -1.0177661194     1.0637193053
Bq        -1.5875181881    -0.8003525344     1.5139727897
Bq        -1.5877012514    -0.6668184247     1.5605411056
Bq        -1.5869932603    -0.7537838587     1.3804397118
Bq        -1.5880552470    -0.6233357077     1.6505918025
Bq        -1.5866392647    -0.7972665757     1.2903890149
Bq        -1.5884092426    -0.5798529907     1.7406424994
Bq        -1.5862852691    -0.8407492927     1.2003383181
Bq        -1.5887632381    -0.5363702737     1.8306931962
Bq        -1.5859312735    -0.8842320097     1.1102876212
Bq        -1.5891172337    -0.4928875567     1.9207438931
Bq        -1.5855772780    -0.9277147267     1.0202369243
Bq        -1.5873472558    -0.7103011417     1.4704904087
Bq        -1.5875303191    -0.5767670320     1.5170587246
Bq        -1.5868223280    -0.6637324660     1.3369573308
Bq        -1.5878843147    -0.5332843150     1.6071094214
Bq        -1.5864683324    -0.7072151830     1.2469066339
Bq        -1.5882383103    -0.4898015980     1.6971601183
Bq        -1.5861143368    -0.7506979000     1.1568559370
Bq        -1.5885923059    -0.4463188810     1.7872108152
Bq        -1.5857603413    -0.7941806170     1.0668052401
Bq        -1.5889463014    -0.4028361640     1.8772615121
Bq        -1.5854063457    -0.8376633340     0.9767545433
Bq        -1.5871763236    -0.6202497490     1.4270080277
Bq        -1.5873593869    -0.4867156393     1.4735763435
Bq        -1.5866513957    -0.5736810733     1.2934749498
Bq        -1.5877133824    -0.4432329223     1.5636270404
Bq        -1.5862974001    -0.6171637904     1.2034242529
Bq        -1.5880673780    -0.3997502053     1.6536777373
Bq        -1.5859434046    -0.6606465074     1.1133735560
Bq        -1.5884213736    -0.3562674883     1.7437284342
Bq        -1.5855894090    -0.7041292244     1.0233228591
Bq        -1.5887753692    -0.3127847713     1.8337791311
Bq        -1.5852354134    -0.7476119414     0.9332721622
Bq        -1.5870053913    -0.5301983563     1.3835256466
Bq        -1.5871884546    -0.3966642467     1.4300939625
Bq        -1.5864804634    -0.4836296807     1.2499925687
Bq        -1.5875424502    -0.3531815297     1.5201446594
Bq        -1.5861264679    -0.5271123977     1.1599418718
Bq        -1.5878964457    -0.3096988127     1.6101953563
Bq        -1.5857724723    -0.5705951147     1.0698911750
Bq        -1.5882504413    -0.2662160957     1.7002460531
Bq        -1.5854184767    -0.6140778317     0.9798404781
Bq        -1.5886044369    -0.2227333786     1.7902967500
Bq        -1.5850644811    -0.6575605487     0.8897897812
Bq        -1.5868344590    -0.4401469637     1.3400432656
Bq        -1.5870175223    -0.3066128540     1.3866115815
Bq        -1.5863095312    -0.3935782880     1.2065101877
Bq        -1.5873715179    -0.2631301370     1.4766622783
Bq        -1.5859555356    -0.4370610050     1.1164594908
Bq        -1.5877255135    -0.2196474200     1.5667129752
Bq        -1.5856015400    -0.4805437220     1.0264087939
Bq        -1.5880795090    -0.1761647030     1.6567636721
Bq        -1.5852475444    -0.5240264390     0.9363580971
Bq        -1.5884335046    -0.1326819860     1.7468143690
Bq        -1.5848935489    -0.5675091560     0.8463074002
Bq        -1.5866635267    -0.3500955710     1.2965608846
Bq        -1.5868465900    -0.2165614613     1.3431292004
Bq        -1.5861385989    -0.3035268953     1.1630278067
Bq        -1.5872005856    -0.1730787443     1.4331798973
Bq        -1.5857846033    -0.3470096123     1.0729771098
Bq        -1.5875545812    -0.1295960273     1.5232305942
Bq        -1.5854306077    -0.3904923293     0.9829264129
Bq        -1.5879085768    -0.0861133103     1.6132812911
Bq        -1.5850766122    -0.4339750463     0.8928757160
Bq        -1.5882625723    -0.0426305933     1.7033319880
Bq        -1.5847226166    -0.4774577634     0.8028250191
Bq        -1.5864925945    -0.2600441783     1.2530785035
Bq        -1.5866756578    -0.1265100687     1.2996468194
Bq        -1.5859676666    -0.2134755027     1.1195454256
Bq        -1.5870296533    -0.0830273517     1.3896975163
Bq        -1.5856136710    -0.2569582197     1.0294947288
Bq        -1.5873836489    -0.0395446346     1.4797482132
Bq        -1.5852596755    -0.3004409367     0.9394440319
Bq        -1.5877376445     0.0039380824     1.5697989100
Bq        -1.5849056799    -0.3439236537     0.8493933350
Bq        -1.5880916401     0.0474207994     1.6598496069
Bq        -1.5845516843    -0.3874063707     0.7593426381
Bq        -1.5863216622    -0.1699927857     1.2095961225

1
2
3
4
5
6
7
8
9
10
11
12
13
14
15
16
17
18
19
20
21
22
23
24
25
26
27
28
29
30
31
32
33
34
35
36
37
38
39
40
41
42
43
44
45
46
47
48
49
50
51
52
53
54
55
56
57
58
59
60
61
62
63
64
65
66
67
68
69
70
71
72
73
74
75
76
77
78
79
80
81
82
83
84
85
86
87
88
89
90
91
92
93
94
95
96
97
98
99
100
101
102
103
104
105
106
107
108
109
110
111
112
113
114
115
116
117
118
119
120
121
122
123
124
125
126
127
128
129
130
131
132
133
134
135
136
137
138
139
140
141
142
143
144
145
146
147
148
149
150
151
152
153
154
155
156
157
158
159
160
161
162
163
164
165
166
167
168
169
170
171
172
173
174
175
176
177
178
179
180
181
182
183
184
185
186
187
188
189
190
191
192
193
194
195
196
197
198
199
200
201
202
203
204
205
206
207
208
209
210
211
212
213
214
215
216
217
218
219
220
221
222
223
224
225
226
227
228
229
230
231
232
233
234
235
236

