%nproc=8
%mem=1000MB
# rb3lyp/6-311+g** NMR geom=connectivity

Title

0 1
C    -4.0500558   -0.5771862    0.8136712
H    -5.0263804   -1.0082727    1.0024760
C    -3.9381552    0.6617804    0.2400876
H    -4.8252424    1.2338890   -0.0111295
C    -2.6768410    1.2433246    0.0057578
C    -1.4974121    0.5051527    0.2848253
C    -1.6508332   -0.7338728    0.9404026
H    -0.7713646   -1.2730967    1.2633753
C    -2.8898548   -1.2624035    1.1994307
H    -2.9683706   -2.2124563    1.7152676
C    -2.5773185    2.5963696   -0.4192930
H    -3.4870728    3.1412239   -0.6474055
C    -1.3741895    3.2147896   -0.4364030
H    -1.2997315    4.2742019   -0.6578144
C    -0.1719488    2.4994090   -0.1734588
C    -0.2043917    1.1018437    0.0192689
C     1.0513491    3.2042560   -0.0676222
H     1.0427344    4.2819499   -0.1896997
C     2.1942091    2.5487446    0.2579577
H     3.1168527    3.0912848    0.4334727
C     2.2216473    1.1336562    0.2934990
C     1.0486931    0.3945528    0.0302412
C     3.4483363    0.4614633    0.5573939
H     4.3095794    1.0606054    0.8334846
C     3.5427346   -0.8855926    0.4749463
H     4.4731467   -1.3939704    0.7038822
C     2.4490052   -1.6474447   -0.0196319
C     1.2150704   -1.0057258   -0.3013573
C     0.2531113   -1.7434440   -1.0216591
H    -0.6541356   -1.2535051   -1.3462847
C     0.4494193   -3.0628597   -1.3413779
H    -0.3083162   -3.5944309   -1.9054060
C     1.6251726   -3.7207967   -0.9552541
H     1.7670048   -4.7687404   -1.1927019
C     2.6109872   -3.0144177   -0.3183050
H     3.5525612   -3.4902813   -0.0646367
Bq         2.4326537258    -3.0937636145    -0.1988135899
Bq         2.1536213793    -3.2800731723     0.4155394831
Bq         2.4725154896    -3.0671479634    -0.2865783146
Bq         2.1137596155    -3.3066888234     0.5033042078
Bq         2.5123772534    -3.0405323123    -0.3743430393
Bq         2.3130684344    -3.1736105679     0.0644805843
Bq         2.2622001973    -3.1038332362     0.1764785594
Bq         2.3419237249    -3.0506019340     0.0009491100
Bq         2.2223384335    -3.1304488874     0.2642432842
Bq         2.3817854887    -3.0239862829    -0.0868156147
Bq         2.1824766697    -3.1570645385     0.3520080089
Bq         2.4216472524    -2.9973706318    -0.1745803394
Bq         2.1426149059    -3.1836801896     0.4397727336
Bq         2.4615090162    -2.9707549807    -0.2623450641
Bq         2.1027531421    -3.2102958407     0.5275374583
Bq         2.5013707800    -2.9441393296    -0.3501097888
Bq         2.3020619611    -3.0772175851     0.0887138347
Bq         2.2511937239    -3.0074402535     0.2007118099
Bq         2.3309172515    -2.9542089513     0.0251823605
Bq         2.2113319601    -3.0340559046     0.2884765346
Bq         2.3707790153    -2.9275933002    -0.0625823642
Bq         2.1714701963    -3.0606715558     0.3762412593
Bq         2.4106407791    -2.9009776491    -0.1503470890
Bq         2.1316084326    -3.0872872069     0.4640059840
Bq         2.4505025429    -2.8743619980    -0.2381118137
Bq         2.0917466688    -3.1139028580     0.5517707087
Bq         2.4903643066    -2.8477463469    -0.3258765384
Bq         2.2910554877    -2.9808246024     0.1129470852
Bq         2.2401872505    -2.9110472708     0.2249450604
Bq         2.3199107781    -2.8578159686     0.0494156109
Bq         2.2003254868    -2.9376629219     0.3127097851
Bq         2.3597725419    -2.8312003175    -0.0383491138
Bq         2.1604637230    -2.9642785730     0.4004745098
Bq         2.3996343057    -2.8045846664    -0.1261138385
Bq         2.1206019592    -2.9908942241     0.4882392345
Bq         2.4394960695    -2.7779690153    -0.2138785632
Bq         2.0807401954    -3.0175098753     0.5760039592
Bq         2.4793578333    -2.7513533642    -0.3016432879
Bq         2.2800490143    -2.8844316197     0.1371803356
Bq         2.2291807772    -2.8146542881     0.2491783108
Bq         2.3089043047    -2.7614229859     0.0736488614
Bq         2.1893190134    -2.8412699392     0.3369430355
Bq         2.3487660685    -2.7348073348    -0.0141158633
Bq         2.1494572496    -2.8678855903     0.4247077602
Bq         2.3886278323    -2.7081916837    -0.1018805880
Bq         2.1095954858    -2.8945012414     0.5124724850
Bq         2.4284895961    -2.6815760326    -0.1896453127
Bq         2.0697337220    -2.9211168925     0.6002372097
Bq         2.4683513599    -2.6549603815    -0.2774100375
Bq         2.2690425410    -2.7880386370     0.1614135861
Bq         2.2181743038    -2.7182613054     0.2734115613
Bq         2.2978978314    -2.6650300032     0.0978821118
Bq         2.1783125400    -2.7448769565     0.3611762860
Bq         2.3377595952    -2.6384143521     0.0101173871
Bq         2.1384507762    -2.7714926076     0.4489410107
Bq         2.3776213590    -2.6117987010    -0.0776473376
Bq         2.0985890124    -2.7981082587     0.5367057354
Bq         2.4174831227    -2.5851830499    -0.1654120623
Bq         2.0587272487    -2.8247239098     0.6244704601
Bq         2.4573448865    -2.5585673988    -0.2531767870
Bq         2.2580360676    -2.6916456543     0.1856468366
Bq         2.2071678304    -2.6218683227     0.2976448117
Bq         2.2868913580    -2.5686370205     0.1221153623
Bq         2.1673060666    -2.6484839738     0.3854095364
Bq         2.3267531218    -2.5420213694     0.0343506376
Bq         2.1274443029    -2.6750996249     0.4731742612
Bq         2.3666148856    -2.5154057183    -0.0534140871
Bq         2.0875825391    -2.7017152760     0.5609389859
Bq         2.4064766494    -2.4887900672    -0.1411788118
Bq         2.0477207753    -2.7283309271     0.6487037106
Bq         2.4463384132    -2.4621744160    -0.2289435365
Bq         2.2470295942    -2.5952526716     0.2098800870
Bq         2.1961613571    -2.5254753400     0.3218780622
Bq         2.2758848846    -2.4722440378     0.1463486128
Bq         2.1562995933    -2.5520909911     0.4096427869
Bq         2.3157466484    -2.4456283867     0.0585838881
Bq         2.1164378295    -2.5787066422     0.4974075116
Bq         2.3556084122    -2.4190127355    -0.0291808367
Bq         2.0765760657    -2.6053222933     0.5851722363
Bq         2.3954701760    -2.3923970844    -0.1169455614
Bq         2.0367143019    -2.6319379444     0.6729369610
Bq         2.4353319398    -2.3657814333    -0.2047102861
Bq         2.2360231208    -2.4988596889     0.2341133375
Bq         2.1851548837    -2.4290823573     0.3461113126
Bq         2.2648784113    -2.3758510550     0.1705818632
Bq         2.1452931199    -2.4556980084     0.4338760374
Bq         2.3047401750    -2.3492354039     0.0828171385
Bq         2.1054313561    -2.4823136595     0.5216407621
Bq         2.3446019388    -2.3226197528    -0.0049475862
Bq         2.0655695923    -2.5089293106     0.6094054868
Bq         2.3844637026    -2.2960041017    -0.0927123109
Bq         2.0257078285    -2.5355449617     0.6971702115
Bq         2.4243254664    -2.2693884506    -0.1804770356
Bq         2.2250166475    -2.4024667062     0.2583465879
Bq         2.1741484103    -2.3326893746     0.3703445631
Bq         2.2538719379    -2.2794580723     0.1948151137
Bq         2.1342866465    -2.3593050257     0.4581092878
Bq         2.2937337017    -2.2528424212     0.1070503890
Bq         2.0944248827    -2.3859206768     0.5458740125
Bq         2.3335954655    -2.2262267701     0.0192856643
Bq         2.0545631190    -2.4125363279     0.6336387372
Bq         2.3734572293    -2.1996111190    -0.0684790605
Bq         2.0147013552    -2.4391519790     0.7214034620
Bq         2.4133189930    -2.1729954679    -0.1562437852
Bq         2.2140101741    -2.3060737234     0.2825798384
Bq         2.1631419369    -2.2362963918     0.3945778136
Bq         2.2428654645    -2.1830650896     0.2190483641
Bq         2.1232801732    -2.2629120429     0.4823425383
Bq         2.2827272283    -2.1564494385     0.1312836394
Bq         2.0834184094    -2.2895276941     0.5701072630
Bq         2.3225889921    -2.1298337874     0.0435189147
Bq         2.0435566456    -2.3161433452     0.6578719877
Bq         2.3624507559    -2.1032181363    -0.0442458100
Bq         2.0036948818    -2.3427589963     0.7456367124
Bq         2.4023125197    -2.0766024852    -0.1320105347
Bq         2.2030037007    -2.2096807407     0.3068130888
Bq         2.1521354636    -2.1399034091     0.4188110640
Bq         2.2318589911    -2.0866721069     0.2432816146
Bq         2.1122736998    -2.1665190602     0.5065757887
Bq         2.2717207549    -2.0600564558     0.1555168899
Bq         2.0724119360    -2.1931347113     0.5943405134
Bq         2.3115825187    -2.0334408047     0.0677521652
Bq         2.0325501722    -2.2197503624     0.6821052382
Bq         2.3514442825    -2.0068251536    -0.0200125595
Bq         1.9926884084    -2.2463660136     0.7698699629
Bq         2.3913060463    -1.9802095025    -0.1077772843
Bq         2.1919972274    -2.1132877580     0.3310463393
Bq         2.1411289902    -2.0435104264     0.4430443145
Bq         2.2208525178    -1.9902791242     0.2675148651
Bq         2.1012672264    -2.0701260775     0.5308090392
Bq         2.2607142816    -1.9636634731     0.1797501403
Bq         2.0614054626    -2.0967417286     0.6185737639
Bq         2.3005760453    -1.9370478220     0.0919854156
Bq         2.0215436988    -2.1233573797     0.7063384886
Bq         2.3404378091    -1.9104321709     0.0042206909
Bq         1.9816819350    -2.1499730308     0.7941032133
Bq         2.3802995729    -1.8838165198    -0.0835440338
Bq         2.1809907540    -2.0168947753     0.3552795898
Bq         2.1301225168    -1.9471174437     0.4672775649
Bq         2.2098460444    -1.8938861415     0.2917481155
Bq         2.0902607530    -1.9737330948     0.5550422896
Bq         2.2497078082    -1.8672704904     0.2039833908
Bq         2.0503989892    -2.0003487459     0.6428070144
Bq         2.2895695720    -1.8406548393     0.1162186661
Bq         2.0105372255    -2.0269643970     0.7305717391
Bq         2.3294313358    -1.8140391882     0.0284539414
Bq         1.9706754617    -2.0535800481     0.8183364638
Bq         2.3692930995    -1.7874235371    -0.0593107833
Bq         2.1699842806    -1.9205017926     0.3795128402
Bq         2.1191160435    -1.8507244610     0.4915108154
Bq         2.1988395710    -1.7974931588     0.3159813660
Bq         2.0792542797    -1.8773401121     0.5792755401
Bq         2.2387013348    -1.7708775077     0.2282166413
Bq         2.0393925159    -1.9039557632     0.6670402648
Bq         2.2785630986    -1.7442618566     0.1404519165
Bq         1.9995307521    -1.9305714143     0.7548049895
Bq         2.3184248624    -1.7176462055     0.0526871918
Bq         1.9596689883    -1.9571870654     0.8425697142
Bq         2.3582866262    -1.6910305543    -0.0350775329
Bq         2.1589778072    -1.8241088099     0.4037460907
Bq         2.1081095701    -1.7543314783     0.5157440659
Bq         2.1878330977    -1.7011001761     0.3402146164
Bq         2.0682478063    -1.7809471294     0.6035087906
Bq         2.2276948614    -1.6744845250     0.2524498917
Bq         2.0283860425    -1.8075627805     0.6912735153
Bq         2.2675566252    -1.6478688739     0.1646851670
Bq         1.9885242787    -1.8341784316     0.7790382400
Bq         2.3074183890    -1.6212532227     0.0769204423
Bq         1.9486625149    -1.8607940827     0.8668029647
Bq         2.3472801528    -1.5946375716    -0.0108442824
Bq         2.1479713339    -1.7277158272     0.4279793411
Bq         2.0971030967    -1.6579384956     0.5399773163
Bq         2.1768266243    -1.6047071934     0.3644478669
Bq         2.0572413329    -1.6845541467     0.6277420410
Bq         2.2166883881    -1.5780915422     0.2766831422
Bq         2.0173795691    -1.7111697978     0.7155067657
Bq         2.2565501519    -1.5514758911     0.1889184175
Bq         1.9775178053    -1.7377854489     0.8032714904
Bq         2.2964119156    -1.5248602400     0.1011536927
Bq         1.9376560416    -1.7644011000     0.8910362152
Bq         2.3362736794    -1.4982445889     0.0133889680
Bq         2.1369648605    -1.6313228445     0.4522125916
Bq         2.0860966233    -1.5615455129     0.5642105668
Bq         2.1658201509    -1.5083142106     0.3886811173
Bq         2.0462348595    -1.5881611640     0.6519752915
Bq         2.2056819147    -1.4816985595     0.3009163926
Bq         2.0063730958    -1.6147768151     0.7397400162
Bq         2.2455436785    -1.4550829084     0.2131516679
Bq         1.9665113320    -1.6413924662     0.8275047409
Bq         2.2854054423    -1.4284672573     0.1253869432
Bq         1.9266495682    -1.6680081173     0.9152694656
Bq         2.3252672061    -1.4018516062     0.0376222185
Bq         2.1259583871    -1.5349298617     0.4764458421
Bq         2.0750901500    -1.4651525301     0.5884438172
Bq         2.1548136775    -1.4119212279     0.4129143678
Bq         2.0352283862    -1.4917681812     0.6762085419
Bq         2.1946754413    -1.3853055768     0.3251496431
Bq         1.9953666224    -1.5183838324     0.7639732667
Bq         2.2345372051    -1.3586899257     0.2373849184
Bq         1.9555048586    -1.5449994835     0.8517379914

1
2
3
4
5
6
7
8
9
10
11
12
13
14
15
16
17
18
19
20
21
22
23
24
25
26
27
28
29
30
31
32
33
34
35
36
37
38
39
40
41
42
43
44
45
46
47
48
49
50
51
52
53
54
55
56
57
58
59
60
61
62
63
64
65
66
67
68
69
70
71
72
73
74
75
76
77
78
79
80
81
82
83
84
85
86
87
88
89
90
91
92
93
94
95
96
97
98
99
100
101
102
103
104
105
106
107
108
109
110
111
112
113
114
115
116
117
118
119
120
121
122
123
124
125
126
127
128
129
130
131
132
133
134
135
136
137
138
139
140
141
142
143
144
145
146
147
148
149
150
151
152
153
154
155
156
157
158
159
160
161
162
163
164
165
166
167
168
169
170
171
172
173
174
175
176
177
178
179
180
181
182
183
184
185
186
187
188
189
190
191
192
193
194
195
196
197
198
199
200
201
202
203
204
205
206
207
208
209
210
211
212
213
214
215
216
217
218
219
220
221
222
223
224
225
226
227
228
229
230
231
232
233
234
235
236

