%nproc=8
%mem=1000MB
# rb3lyp/6-311+g** NMR geom=connectivity

Title

0 1
C    -4.0500558   -0.5771862    0.8136712
H    -5.0263804   -1.0082727    1.0024760
C    -3.9381552    0.6617804    0.2400876
H    -4.8252424    1.2338890   -0.0111295
C    -2.6768410    1.2433246    0.0057578
C    -1.4974121    0.5051527    0.2848253
C    -1.6508332   -0.7338728    0.9404026
H    -0.7713646   -1.2730967    1.2633753
C    -2.8898548   -1.2624035    1.1994307
H    -2.9683706   -2.2124563    1.7152676
C    -2.5773185    2.5963696   -0.4192930
H    -3.4870728    3.1412239   -0.6474055
C    -1.3741895    3.2147896   -0.4364030
H    -1.2997315    4.2742019   -0.6578144
C    -0.1719488    2.4994090   -0.1734588
C    -0.2043917    1.1018437    0.0192689
C     1.0513491    3.2042560   -0.0676222
H     1.0427344    4.2819499   -0.1896997
C     2.1942091    2.5487446    0.2579577
H     3.1168527    3.0912848    0.4334727
C     2.2216473    1.1336562    0.2934990
C     1.0486931    0.3945528    0.0302412
C     3.4483363    0.4614633    0.5573939
H     4.3095794    1.0606054    0.8334846
C     3.5427346   -0.8855926    0.4749463
H     4.4731467   -1.3939704    0.7038822
C     2.4490052   -1.6474447   -0.0196319
C     1.2150704   -1.0057258   -0.3013573
C     0.2531113   -1.7434440   -1.0216591
H    -0.6541356   -1.2535051   -1.3462847
C     0.4494193   -3.0628597   -1.3413779
H    -0.3083162   -3.5944309   -1.9054060
C     1.6251726   -3.7207967   -0.9552541
H     1.7670048   -4.7687404   -1.1927019
C     2.6109872   -3.0144177   -0.3183050
H     3.5525612   -3.4902813   -0.0646367
Bq         3.3580335954     0.6594144979     1.3700782280
Bq         3.4738412198     0.6201066172     0.5794813113
Bq         3.3435576424     0.6643279830     1.4689028426
Bq         3.4883171728     0.6151931321     0.4806566967
Bq         3.4159374076     0.6397605576     0.9747797696
Bq         3.4021735885     0.7445532580     1.0687427795
Bq         3.4311254946     0.7347262878     0.8710935503
Bq         3.3876976355     0.7494667431     1.1675673940
Bq         3.4456014476     0.7298128028     0.7722689357
Bq         3.3732216824     0.7543802282     1.2663920086
Bq         3.4600774007     0.7248993177     0.6734443211
Bq         3.3587457294     0.7592937133     1.3652166232
Bq         3.4745533537     0.7199858326     0.5746197065
Bq         3.3442697763     0.7642071983     1.4640412378
Bq         3.4890293068     0.7150723475     0.4757950919
Bq         3.4166495415     0.7396397729     0.9699181649
Bq         3.4028857224     0.8444324734     1.0638811747
Bq         3.4318376285     0.8346055032     0.8662319455
Bq         3.3884097694     0.8493459585     1.1627057893
Bq         3.4463135816     0.8296920181     0.7674073309
Bq         3.3739338164     0.8542594436     1.2615304039
Bq         3.4607895346     0.8247785331     0.6685827163
Bq         3.3594578633     0.8591729286     1.3603550184
Bq         3.4752654877     0.8198650480     0.5697581018
Bq         3.3449819103     0.8640864137     1.4591796330
Bq         3.4897414407     0.8149515629     0.4709334872
Bq         3.4173616755     0.8395189883     0.9650565601
Bq         3.4035978564     0.9443116888     1.0590195699
Bq         3.4325497625     0.9344847186     0.8613703408
Bq         3.3891219033     0.9492251739     1.1578441845
Bq         3.4470257155     0.9295712335     0.7625457262
Bq         3.3746459503     0.9541386589     1.2566687991
Bq         3.4615016686     0.9246577484     0.6637211116
Bq         3.3601699972     0.9590521440     1.3554934137
Bq         3.4759776216     0.9197442634     0.5648964970
Bq         3.3456940442     0.9639656291     1.4543180283
Bq         3.4904535746     0.9148307783     0.4660718824
Bq         3.4180738094     0.9393982037     0.9601949553
Bq         3.4043099903     1.0441909041     1.0541579652
Bq         3.4332618964     1.0343639340     0.8565087360
Bq         3.3898340373     1.0491043892     1.1529825797
Bq         3.4477378495     1.0294504489     0.7576841214
Bq         3.3753580842     1.0540178743     1.2518071943
Bq         3.4622138025     1.0245369638     0.6588595068
Bq         3.3608821312     1.0589313594     1.3506318089
Bq         3.4766897555     1.0196234787     0.5600348922
Bq         3.3464061781     1.0638448445     1.4494564235
Bq         3.4911657086     1.0147099936     0.4612102776
Bq         3.4187859434     1.0392774191     0.9553333506
Bq         3.4050221243     1.1440701195     1.0492963604
Bq         3.4339740304     1.1342431494     0.8516471312
Bq         3.3905461712     1.1489836046     1.1481209750
Bq         3.4484499834     1.1293296643     0.7528225166
Bq         3.3760702182     1.1538970897     1.2469455896
Bq         3.4629259364     1.1244161792     0.6539979021
Bq         3.3615942651     1.1588105748     1.3457702041
Bq         3.4774018895     1.1195026941     0.5551732875
Bq         3.3471183121     1.1637240599     1.4445948187
Bq         3.4918778425     1.1145892090     0.4563486729
Bq         3.4194980773     1.1391566344     0.9504717458
Bq         3.4057342582     1.2439493349     1.0444347556
Bq         3.4346861643     1.2341223647     0.8467855265
Bq         3.3912583052     1.2488628200     1.1432593702
Bq         3.4491621173     1.2292088797     0.7479609119
Bq         3.3767823521     1.2537763051     1.2420839848
Bq         3.4636380704     1.2242953946     0.6491362973
Bq         3.3623063991     1.2586897901     1.3409085994
Bq         3.4781140234     1.2193819095     0.5503116827
Bq         3.3478304460     1.2636032752     1.4397332140
Bq         3.4925899765     1.2144684244     0.4514870681
Bq         3.4202102113     1.2390358498     0.9456101410
Bq         3.4064463921     1.3438285503     1.0395731509
Bq         3.4353982982     1.3340015801     0.8419239217
Bq         3.3919704391     1.3487420354     1.1383977654
Bq         3.4498742513     1.3290880950     0.7430993071
Bq         3.3774944861     1.3536555204     1.2372223800
Bq         3.4643502043     1.3241746099     0.6442746925
Bq         3.3630185330     1.3585690055     1.3360469946
Bq         3.4788261574     1.3192611249     0.5454500779
Bq         3.3485425800     1.3634824906     1.4348716092
Bq         3.4933021104     1.3143476398     0.4466254633
Bq         3.4209223452     1.3389150652     0.9407485363
Bq         3.4071585261     1.4437077657     1.0347115461
Bq         3.4361104322     1.4338807955     0.8370623169
Bq         3.3926825730     1.4486212507     1.1335361607
Bq         3.4505863852     1.4289673104     0.7382377023
Bq         3.3782066200     1.4535347358     1.2323607753
Bq         3.4650623383     1.4240538253     0.6394130878
Bq         3.3637306670     1.4584482209     1.3311853898
Bq         3.4795382913     1.4191403402     0.5405884732
Bq         3.3492547139     1.4633617060     1.4300100044
Bq         3.4940142444     1.4142268552     0.4417638586
Bq         3.4216344791     1.4387942806     0.9358869315
Bq         3.4078706600     1.5435869810     1.0298499413
Bq         3.4368225661     1.5337600109     0.8322007122
Bq         3.3933947070     1.5485004661     1.1286745559
Bq         3.4512985192     1.5288465258     0.7333760976
Bq         3.3789187539     1.5534139512     1.2274991705
Bq         3.4657744722     1.5239330407     0.6345514830
Bq         3.3644428009     1.5583274363     1.3263237851
Bq         3.4802504253     1.5190195556     0.5357268684
Bq         3.3499668479     1.5632409214     1.4251483997
Bq         3.4947263783     1.5141060705     0.4369022538
Bq         3.4223466131     1.5386734959     0.9310253267
Bq         3.4085827940     1.6434661964     1.0249883366
Bq         3.4375347001     1.6336392262     0.8273391074
Bq         3.3941068409     1.6483796815     1.1238129511
Bq         3.4520106531     1.6287257412     0.7285144928
Bq         3.3796308879     1.6532931666     1.2226375657
Bq         3.4664866062     1.6238122561     0.6296898782
Bq         3.3651549348     1.6582066517     1.3214621803
Bq         3.4809625592     1.6188987710     0.5308652636
Bq         3.3506789818     1.6631201367     1.4202867949
Bq         3.4954385122     1.6139852859     0.4320406490
Bq         3.4230587470     1.6385527113     0.9261637220
Bq         3.4092949279     1.7433454118     1.0201267318
Bq         3.4382468340     1.7335184416     0.8224775026
Bq         3.3948189749     1.7482588969     1.1189513464
Bq         3.4527227870     1.7286049565     0.7236528880
Bq         3.3803430218     1.7531723819     1.2177759610
Bq         3.4671987401     1.7236914715     0.6248282735
Bq         3.3658670688     1.7580858670     1.3166005755
Bq         3.4816746931     1.7187779864     0.5260036589
Bq         3.3513911157     1.7629993521     1.4154251901
Bq         3.4961506462     1.7138645013     0.4271790443
Bq         3.4237708810     1.7384319267     0.9213021172
Bq         3.4100070619     1.8432246272     1.0152651270
Bq         3.4389589679     1.8333976570     0.8176158979
Bq         3.3955311088     1.8481381122     1.1140897416
Bq         3.4534349210     1.8284841719     0.7187912833
Bq         3.3810551558     1.8530515973     1.2129143562
Bq         3.4679108740     1.8235706868     0.6199666687
Bq         3.3665792027     1.8579650824     1.3117389708
Bq         3.4823868271     1.8186572017     0.5211420541
Bq         3.3521032497     1.8628785675     1.4105635854
Bq         3.4968627801     1.8137437167     0.4223174395
Bq         3.4244830149     1.8383111421     0.9164405124
Bq         3.4107191958     1.9431038425     1.0104035223
Bq         3.4396711019     1.9332768724     0.8127542931
Bq         3.3962432428     1.9480173276     1.1092281368
Bq         3.4541470549     1.9283633873     0.7139296785
Bq         3.3817672897     1.9529308127     1.2080527514
Bq         3.4686230080     1.9234499022     0.6151050639
Bq         3.3672913367     1.9578442978     1.3068773660
Bq         3.4830989610     1.9185364171     0.5162804493
Bq         3.3528153836     1.9627577829     1.4057019806
Bq         3.4975749141     1.9136229320     0.4174558347
Bq         3.4251951488     1.9381903575     0.9115789077
Bq         3.4114313297     2.0429830579     1.0055419175
Bq         3.4403832358     2.0331560878     0.8078926883
Bq         3.3969553767     2.0478965430     1.1043665321
Bq         3.4548591889     2.0282426027     0.7090680737
Bq         3.3824794237     2.0528100281     1.2031911467
Bq         3.4693351419     2.0233291176     0.6102434592
Bq         3.3680034706     2.0577235132     1.3020157612
Bq         3.4838110950     2.0184156325     0.5114188446
Bq         3.3535275176     2.0626369982     1.4008403758
Bq         3.4982870480     2.0135021474     0.4125942300
Bq         3.4259072828     2.0380695728     0.9067173029
Bq         3.4121434637     2.1428622733     1.0006803127
Bq         3.4410953698     2.1330353031     0.8030310836
Bq         3.3976675106     2.1477757584     1.0995049273
Bq         3.4555713228     2.1281218180     0.7042064690
Bq         3.3831915576     2.1526892435     1.1983295419
Bq         3.4700472759     2.1232083330     0.6053818544
Bq         3.3687156045     2.1576027285     1.2971541565
Bq         3.4845232289     2.1182948479     0.5065572398
Bq         3.3542396515     2.1625162136     1.3959787711
Bq         3.4989991819     2.1133813628     0.4077326252
Bq         3.4266194167     2.1379487882     0.9018556981
Bq         3.4128555976     2.2427414887     0.9958187080
Bq         3.4418075037     2.2329145185     0.7981694788
Bq         3.3983796446     2.2476549738     1.0946433225
Bq         3.4562834568     2.2280010334     0.6993448642
Bq         3.3839036915     2.2525684588     1.1934679371
Bq         3.4707594098     2.2230875483     0.6005202496
Bq         3.3694277385     2.2574819439     1.2922925517
Bq         3.4852353628     2.2181740633     0.5016956350
Bq         3.3549517854     2.2623954290     1.3911171663
Bq         3.4997113159     2.2132605782     0.4028710204
Bq         3.4273315507     2.2378280036     0.8969940934
Bq         3.4135677316     2.3426207040     0.9909571032
Bq         3.4425196377     2.3327937339     0.7933078740
Bq         3.3990917785     2.3475341891     1.0897817178
Bq         3.4569955907     2.3278802488     0.6944832594
Bq         3.3846158255     2.3524476742     1.1886063324
Bq         3.4714715437     2.3229667637     0.5956586449
Bq         3.3701398724     2.3573611593     1.2874309469
Bq         3.4859474968     2.3180532786     0.4968340303
Bq         3.3556639194     2.3622746444     1.3862555615
Bq         3.5004234498     2.3131397936     0.3980094157
Bq         3.4280436846     2.3377072190     0.8921324886
Bq         3.4142798655     2.4424999194     0.9860954984
Bq         3.4432317716     2.4326729493     0.7884462693
Bq         3.3998039125     2.4474134045     1.0849201130
Bq         3.4577077246     2.4277594642     0.6896216547
Bq         3.3853279594     2.4523268896     1.1837447276
Bq         3.4721836777     2.4228459791     0.5907970401
Bq         3.3708520064     2.4572403747     1.2825693422
Bq         3.4866596307     2.4179324940     0.4919724255

1
2
3
4
5
6
7
8
9
10
11
12
13
14
15
16
17
18
19
20
21
22
23
24
25
26
27
28
29
30
31
32
33
34
35
36
37
38
39
40
41
42
43
44
45
46
47
48
49
50
51
52
53
54
55
56
57
58
59
60
61
62
63
64
65
66
67
68
69
70
71
72
73
74
75
76
77
78
79
80
81
82
83
84
85
86
87
88
89
90
91
92
93
94
95
96
97
98
99
100
101
102
103
104
105
106
107
108
109
110
111
112
113
114
115
116
117
118
119
120
121
122
123
124
125
126
127
128
129
130
131
132
133
134
135
136
137
138
139
140
141
142
143
144
145
146
147
148
149
150
151
152
153
154
155
156
157
158
159
160
161
162
163
164
165
166
167
168
169
170
171
172
173
174
175
176
177
178
179
180
181
182
183
184
185
186
187
188
189
190
191
192
193
194
195
196
197
198
199
200
201
202
203
204
205
206
207
208
209
210
211
212
213
214
215
216
217
218
219
220
221
222
223
224
225
226
227
228
229
230
231
232
233
234
235
236

