%nproc=8
%mem=1000MB
# rb3lyp/6-311+g** NMR geom=connectivity

Title

0 1
C    -4.0500558   -0.5771862    0.8136712
H    -5.0263804   -1.0082727    1.0024760
C    -3.9381552    0.6617804    0.2400876
H    -4.8252424    1.2338890   -0.0111295
C    -2.6768410    1.2433246    0.0057578
C    -1.4974121    0.5051527    0.2848253
C    -1.6508332   -0.7338728    0.9404026
H    -0.7713646   -1.2730967    1.2633753
C    -2.8898548   -1.2624035    1.1994307
H    -2.9683706   -2.2124563    1.7152676
C    -2.5773185    2.5963696   -0.4192930
H    -3.4870728    3.1412239   -0.6474055
C    -1.3741895    3.2147896   -0.4364030
H    -1.2997315    4.2742019   -0.6578144
C    -0.1719488    2.4994090   -0.1734588
C    -0.2043917    1.1018437    0.0192689
C     1.0513491    3.2042560   -0.0676222
H     1.0427344    4.2819499   -0.1896997
C     2.1942091    2.5487446    0.2579577
H     3.1168527    3.0912848    0.4334727
C     2.2216473    1.1336562    0.2934990
C     1.0486931    0.3945528    0.0302412
C     3.4483363    0.4614633    0.5573939
H     4.3095794    1.0606054    0.8334846
C     3.5427346   -0.8855926    0.4749463
H     4.4731467   -1.3939704    0.7038822
C     2.4490052   -1.6474447   -0.0196319
C     1.2150704   -1.0057258   -0.3013573
C     0.2531113   -1.7434440   -1.0216591
H    -0.6541356   -1.2535051   -1.3462847
C     0.4494193   -3.0628597   -1.3413779
H    -0.3083162   -3.5944309   -1.9054060
C     1.6251726   -3.7207967   -0.9552541
H     1.7670048   -4.7687404   -1.1927019
C     2.6109872   -3.0144177   -0.3183050
H     3.5525612   -3.4902813   -0.0646367
Bq        -2.5273796141     4.4076480229     0.1195726041
Bq        -2.4966437634     4.2112534839    -0.6553367407
Bq        -2.5312215954     4.4321973403     0.2164362721
Bq        -2.4928017821     4.1867041665    -0.7522004088
Bq        -2.5120116888     4.3094507534    -0.2678820683
Bq        -2.5148807159     4.4309399027    -0.1955484296
Bq        -2.5071967532     4.3818412680    -0.3892757658
Bq        -2.5187226972     4.4554892201    -0.0986847616
Bq        -2.5033547719     4.3572919506    -0.4861394339
Bq        -2.5225646785     4.4800385375    -0.0018210935
Bq        -2.4995127905     4.3327426332    -0.5830031020
Bq        -2.5264066598     4.5045878549     0.0950425746
Bq        -2.4956708092     4.3081933159    -0.6798667701
Bq        -2.5302486412     4.5291371722     0.1919062427
Bq        -2.4918288279     4.2836439985    -0.7767304382
Bq        -2.5110387345     4.4063905854    -0.2924120977
Bq        -2.4636069952    -0.4160516942     1.0349163056
Bq        -2.4559230326    -0.4651503290     0.8411889694
Bq        -2.4674489766    -0.3915023768     1.1317799737
Bq        -2.4520810513    -0.4896996464     0.7443253013
Bq        -2.4712909579    -0.3669530595     1.2286436418
Bq        -2.4482390699    -0.5142489637     0.6474616332
Bq        -2.4751329392    -0.3424037421     1.3255073098
Bq        -2.4443970886    -0.5387982811     0.5505979651
Bq        -2.4789749206    -0.3178544247     1.4223709779
Bq        -2.4405551073    -0.5633475985     0.4537342970
Bq        -2.4597650139    -0.4406010116     0.9380526375
Bq        -2.4626340410    -0.3191118623     1.0103862762
Bq        -2.4549500784    -0.3682104970     0.8166589400
Bq        -2.4664760224    -0.2945625449     1.1072499442
Bq        -2.4511080970    -0.3927598144     0.7197952719
Bq        -2.4703180037    -0.2700132275     1.2041136123
Bq        -2.4472661157    -0.4173091318     0.6229316038
Bq        -2.4741599850    -0.2454639102     1.3009772804
Bq        -2.4434241344    -0.4418584492     0.5260679357
Bq        -2.4780019663    -0.2209145928     1.3978409485
Bq        -2.4395821530    -0.4664077665     0.4292042676
Bq        -2.4587920597    -0.3436611797     0.9135226081
Bq        -2.4616610868    -0.2221720303     0.9858562467
Bq        -2.4539771241    -0.2712706651     0.7921289105
Bq        -2.4655030681    -0.1976227130     1.0827199148
Bq        -2.4501351428    -0.2958199825     0.6952652425
Bq        -2.4693450495    -0.1730733956     1.1795835829
Bq        -2.4462931615    -0.3203692998     0.5984015744
Bq        -2.4731870308    -0.1485240782     1.2764472510
Bq        -2.4424511802    -0.3449186172     0.5015379063
Bq        -2.4770290121    -0.1239747608     1.3733109191
Bq        -2.4386091988    -0.3694679346     0.4046742382
Bq        -2.4578191055    -0.2467213477     0.8889925786
Bq        -2.4606881326    -0.1252321984     0.9613262173
Bq        -2.4530041699    -0.1743308332     0.7675988811
Bq        -2.4645301139    -0.1006828810     1.0581898854
Bq        -2.4491621886    -0.1988801505     0.6707352130
Bq        -2.4683720952    -0.0761335637     1.1550535535
Bq        -2.4453202073    -0.2234294679     0.5738715449
Bq        -2.4722140766    -0.0515842463     1.2519172216
Bq        -2.4414782259    -0.2479787853     0.4770078768
Bq        -2.4760560579    -0.0270349289     1.3487808897
Bq        -2.4376362446    -0.2725281027     0.3801442088
Bq        -2.4568461512    -0.1497815158     0.8644625492
Bq        -2.4597151784    -0.0282923665     0.9367961879
Bq        -2.4520312157    -0.0773910012     0.7430688517
Bq        -2.4635571597    -0.0037430491     1.0336598560
Bq        -2.4481892344    -0.1019403186     0.6462051836
Bq        -2.4673991410     0.0208062683     1.1305235240
Bq        -2.4443472530    -0.1264896360     0.5493415155
Bq        -2.4712411223     0.0453555857     1.2273871921
Bq        -2.4405052717    -0.1510389533     0.4524778474
Bq        -2.4750831037     0.0699049030     1.3242508602
Bq        -2.4366632904    -0.1755882707     0.3556141793
Bq        -2.4558731970    -0.0528416838     0.8399325198
Bq        -2.4587422241     0.0686474655     0.9122661584
Bq        -2.4510582615     0.0195488307     0.7185388223
Bq        -2.4625842055     0.0931967828     1.0091298265
Bq        -2.4472162801    -0.0050004867     0.6216751542
Bq        -2.4664261868     0.1177461002     1.1059934946
Bq        -2.4433742988    -0.0295498040     0.5248114861
Bq        -2.4702681681     0.1422954176     1.2028571627
Bq        -2.4395323175    -0.0540991214     0.4279478180
Bq        -2.4741101494     0.1668447350     1.2997208308
Bq        -2.4356903362    -0.0786484388     0.3310841499
Bq        -2.4549002428     0.0440981481     0.8154024904
Bq        -2.4577692699     0.1655872974     0.8877361290
Bq        -2.4500853072     0.1164886627     0.6940087928
Bq        -2.4616112512     0.1901366148     0.9845997971
Bq        -2.4462433259     0.0919393453     0.5971451247
Bq        -2.4654532326     0.2146859322     1.0814634652
Bq        -2.4424013446     0.0673900279     0.5002814567
Bq        -2.4692952139     0.2392352495     1.1783271333
Bq        -2.4385593633     0.0428407105     0.4034177886
Bq        -2.4731371952     0.2637845669     1.2751908014
Bq        -2.4347173819     0.0182913932     0.3065541205
Bq        -2.4539272886     0.1410379800     0.7908724609
Bq        -2.4567963157     0.2625271294     0.8632060996
Bq        -2.4491123530     0.2134284946     0.6694787634
Bq        -2.4606382970     0.2870764467     0.9600697677
Bq        -2.4452703717     0.1888791772     0.5726150953
Bq        -2.4644802783     0.3116257641     1.0569334358
Bq        -2.4414283904     0.1643298598     0.4757514272
Bq        -2.4683222597     0.3361750815     1.1537971039
Bq        -2.4375864090     0.1397805425     0.3788877591
Bq        -2.4721642410     0.3607243989     1.2506607719
Bq        -2.4337444277     0.1152312251     0.2820240910
Bq        -2.4529543343     0.2379778120     0.7663424315
Bq        -2.4558233615     0.3594669613     0.8386760702
Bq        -2.4481393988     0.3103683265     0.6449487340
Bq        -2.4596653428     0.3840162787     0.9355397383
Bq        -2.4442974175     0.2858190092     0.5480850659
Bq        -2.4635073241     0.4085655960     1.0324034063
Bq        -2.4404554361     0.2612696918     0.4512213978
Bq        -2.4673493054     0.4331149134     1.1292670744
Bq        -2.4366134548     0.2367203744     0.3543577297
Bq        -2.4711912868     0.4576642308     1.2261307425
Bq        -2.4327714735     0.2121710570     0.2574940616
Bq        -2.4519813801     0.3349176439     0.7418124021
Bq        -2.4548504072     0.4564067932     0.8141460407
Bq        -2.4471664446     0.4073081585     0.6204187046
Bq        -2.4586923886     0.4809561106     0.9110097088
Bq        -2.4433244632     0.3827588411     0.5235550365
Bq        -2.4625343699     0.5055054280     1.0078733769
Bq        -2.4394824819     0.3582095237     0.4266913684
Bq        -2.4663763512     0.5300547454     1.1047370450
Bq        -2.4356405006     0.3336602064     0.3298277003
Bq        -2.4702183325     0.5546040627     1.2016007131
Bq        -2.4317985193     0.3091108890     0.2329640322
Bq        -2.4510084259     0.4318574759     0.7172823726
Bq        -2.4538774530     0.5533466252     0.7896160113
Bq        -2.4461934903     0.5042479904     0.5958886751
Bq        -2.4577194343     0.5778959425     0.8864796794
Bq        -2.4423515090     0.4796986730     0.4990250070
Bq        -2.4615614157     0.6024452599     0.9833433475
Bq        -2.4385095277     0.4551493557     0.4021613389
Bq        -2.4654033970     0.6269945773     1.0802070156
Bq        -2.4346675464     0.4306000383     0.3052976709
Bq        -2.4692453783     0.6515438947     1.1770706837
Bq        -2.4308255650     0.4060507209     0.2084340028
Bq        -2.4500354717     0.5287973078     0.6927523432
Bq        -2.4529044988     0.6502864571     0.7650859819
Bq        -2.4452205361     0.6011878224     0.5713586457
Bq        -2.4567464801     0.6748357745     0.8619496500
Bq        -2.4413785548     0.5766385050     0.4744949776
Bq        -2.4605884614     0.6993850919     0.9588133181
Bq        -2.4375365735     0.5520891876     0.3776313095
Bq        -2.4644304428     0.7239344092     1.0556769861
Bq        -2.4336945921     0.5275398702     0.2807676414
Bq        -2.4682724241     0.7484837266     1.1525406542
Bq        -2.4298526108     0.5029905529     0.1839039733
Bq        -2.4490625175     0.6257371397     0.6682223138
Bq        -2.4519315446     0.7472262890     0.7405559525
Bq        -2.4442475819     0.6981276543     0.5468286163
Bq        -2.4557735259     0.7717756064     0.8374196205
Bq        -2.4404056006     0.6735783369     0.4499649482
Bq        -2.4596155072     0.7963249238     0.9342832886
Bq        -2.4365636192     0.6490290195     0.3531012801
Bq        -2.4634574885     0.8208742412     1.0311469567
Bq        -2.4327216379     0.6244797022     0.2562376120
Bq        -2.4672994699     0.8454235585     1.1280106248
Bq        -2.4288796566     0.5999303848     0.1593739439
Bq        -2.4480895632     0.7226769717     0.6436922844
Bq        -2.4509585903     0.8441661210     0.7160259230
Bq        -2.4432746277     0.7950674862     0.5222985868
Bq        -2.4548005717     0.8687154384     0.8128895911
Bq        -2.4394326463     0.7705181689     0.4254349188
Bq        -2.4586425530     0.8932647557     0.9097532592
Bq        -2.4355906650     0.7459688515     0.3285712507
Bq        -2.4624845343     0.9178140731     1.0066169273
Bq        -2.4317486837     0.7214195341     0.2317075826
Bq        -2.4663265156     0.9423633905     1.1034805954
Bq        -2.4279067024     0.6968702167     0.1348439145
Bq        -2.4471166090     0.8196168036     0.6191622549
Bq        -2.4499856361     0.9411059529     0.6914958936
Bq        -2.4423016734     0.8920073182     0.4977685574
Bq        -2.4538276174     0.9656552703     0.7883595617
Bq        -2.4384596921     0.8674580008     0.4009048893
Bq        -2.4576695988     0.9902045877     0.8852232298
Bq        -2.4346177108     0.8429086834     0.3040412212
Bq        -2.4615115801     1.0147539051     0.9820868979
Bq        -2.4307757295     0.8183593660     0.2071775531
Bq        -2.4653535614     1.0393032224     1.0789505660
Bq        -2.4269337481     0.7938100487     0.1103138851
Bq        -2.4461436548     0.9165566355     0.5946322255
Bq        -2.4490126819     1.0380457849     0.6669658642
Bq        -2.4413287192     0.9889471501     0.4732385280
Bq        -2.4528546632     1.0625951022     0.7638295323
Bq        -2.4374867379     0.9643978327     0.3763748599
Bq        -2.4566966445     1.0871444196     0.8606932004
Bq        -2.4336447566     0.9398485154     0.2795111918
Bq        -2.4605386259     1.1116937370     0.9575568684
Bq        -2.4298027752     0.9152991980     0.1826475237
Bq        -2.4643806072     1.1362430544     1.0544205365
Bq        -2.4259607939     0.8907498806     0.0857838556
Bq        -2.4451707006     1.0134964675     0.5701021961
Bq        -2.4480397277     1.1349856168     0.6424358347
Bq        -2.4403557650     1.0858869821     0.4487084986
Bq        -2.4518817090     1.1595349342     0.7392995028
Bq        -2.4365137837     1.0613376647     0.3518448305
Bq        -2.4557236903     1.1840842516     0.8361631709
Bq        -2.4326718023     1.0367883473     0.2549811624
Bq        -2.4595656716     1.2086335689     0.9330268390
Bq        -2.4288298210     1.0122390299     0.1581174943

1
2
3
4
5
6
7
8
9
10
11
12
13
14
15
16
17
18
19
20
21
22
23
24
25
26
27
28
29
30
31
32
33
34
35
36
37
38
39
40
41
42
43
44
45
46
47
48
49
50
51
52
53
54
55
56
57
58
59
60
61
62
63
64
65
66
67
68
69
70
71
72
73
74
75
76
77
78
79
80
81
82
83
84
85
86
87
88
89
90
91
92
93
94
95
96
97
98
99
100
101
102
103
104
105
106
107
108
109
110
111
112
113
114
115
116
117
118
119
120
121
122
123
124
125
126
127
128
129
130
131
132
133
134
135
136
137
138
139
140
141
142
143
144
145
146
147
148
149
150
151
152
153
154
155
156
157
158
159
160
161
162
163
164
165
166
167
168
169
170
171
172
173
174
175
176
177
178
179
180
181
182
183
184
185
186
187
188
189
190
191
192
193
194
195
196
197
198
199
200
201
202
203
204
205
206
207
208
209
210
211
212
213
214
215
216
217
218
219
220
221
222
223
224
225
226
227
228
229
230
231
232
233
234
235
236

