%nproc=8
%mem=1000MB
# rb3lyp/6-311+g** NMR geom=connectivity

Title

0 1
C    -4.0500558   -0.5771862    0.8136712
H    -5.0263804   -1.0082727    1.0024760
C    -3.9381552    0.6617804    0.2400876
H    -4.8252424    1.2338890   -0.0111295
C    -2.6768410    1.2433246    0.0057578
C    -1.4974121    0.5051527    0.2848253
C    -1.6508332   -0.7338728    0.9404026
H    -0.7713646   -1.2730967    1.2633753
C    -2.8898548   -1.2624035    1.1994307
H    -2.9683706   -2.2124563    1.7152676
C    -2.5773185    2.5963696   -0.4192930
H    -3.4870728    3.1412239   -0.6474055
C    -1.3741895    3.2147896   -0.4364030
H    -1.2997315    4.2742019   -0.6578144
C    -0.1719488    2.4994090   -0.1734588
C    -0.2043917    1.1018437    0.0192689
C     1.0513491    3.2042560   -0.0676222
H     1.0427344    4.2819499   -0.1896997
C     2.1942091    2.5487446    0.2579577
H     3.1168527    3.0912848    0.4334727
C     2.2216473    1.1336562    0.2934990
C     1.0486931    0.3945528    0.0302412
C     3.4483363    0.4614633    0.5573939
H     4.3095794    1.0606054    0.8334846
C     3.5427346   -0.8855926    0.4749463
H     4.4731467   -1.3939704    0.7038822
C     2.4490052   -1.6474447   -0.0196319
C     1.2150704   -1.0057258   -0.3013573
C     0.2531113   -1.7434440   -1.0216591
H    -0.6541356   -1.2535051   -1.3462847
C     0.4494193   -3.0628597   -1.3413779
H    -0.3083162   -3.5944309   -1.9054060
C     1.6251726   -3.7207967   -0.9552541
H     1.7670048   -4.7687404   -1.1927019
C     2.6109872   -3.0144177   -0.3183050
H     3.5525612   -3.4902813   -0.0646367
Bq        -3.6857683775    -0.3470096123     1.0647219270
Bq        -3.6875383554    -0.1295960273     1.5149754114
Bq        -3.6854143819    -0.3904923293     0.9746712301
Bq        -3.6878923510    -0.0861133103     1.6050261083
Bq        -3.6850603864    -0.4339750463     0.8846205332
Bq        -3.6882463465    -0.0426305933     1.6950768052
Bq        -3.6847063908    -0.4774577634     0.7945698363
Bq        -3.6864763687    -0.2600441783     1.2448233208
Bq        -3.6866594320    -0.1265100687     1.2913916366
Bq        -3.6859514408    -0.2134755027     1.1112902428
Bq        -3.6870134275    -0.0830273517     1.3814423335
Bq        -3.6855974452    -0.2569582197     1.0212395460
Bq        -3.6873674231    -0.0395446346     1.4714930304
Bq        -3.6852434497    -0.3004409367     0.9311888491
Bq        -3.6877214187     0.0039380824     1.5615437273
Bq        -3.6848894541    -0.3439236537     0.8411381522
Bq        -3.6880754143     0.0474207994     1.6515944241
Bq        -3.6845354585    -0.3874063707     0.7510874553
Bq        -3.6863054364    -0.1699927857     1.2013409397
Bq        -3.6864884997    -0.0364586760     1.2479092556
Bq        -3.6857805085    -0.1234241100     1.0678078618
Bq        -3.6868424953     0.0070240410     1.3379599525
Bq        -3.6854265130    -0.1669068270     0.9777571649
Bq        -3.6871964908     0.0505067580     1.4280106493
Bq        -3.6850725174    -0.2103895440     0.8877064680
Bq        -3.6875504864     0.0939894750     1.5180613462
Bq        -3.6847185218    -0.2538722610     0.7976557712
Bq        -3.6879044820     0.1374721920     1.6081120431
Bq        -3.6843645262    -0.2973549780     0.7076050743
Bq        -3.6861345041    -0.0799413930     1.1578585587
Bq        -3.6863175674     0.0535927167     1.2044268745
Bq        -3.6856095763    -0.0333727173     1.0243254808
Bq        -3.6866715630     0.0970754337     1.2944775714
Bq        -3.6852555807    -0.0768554343     0.9342747839
Bq        -3.6870255586     0.1405581507     1.3845282683
Bq        -3.6849015851    -0.1203381513     0.8442240870
Bq        -3.6873795541     0.1840408677     1.4745789652
Bq        -3.6845475895    -0.1638208683     0.7541733901
Bq        -3.6877335497     0.2275235847     1.5646296621
Bq        -3.6841935940    -0.2073035853     0.6641226933
Bq        -3.6859635718     0.0101099997     1.1143761777
Bq        -3.6861466351     0.1436441094     1.1609444935
Bq        -3.6854386440     0.0566786753     0.9808430997
Bq        -3.6865006307     0.1871268264     1.2509951904
Bq        -3.6850846484     0.0131959583     0.8907924029
Bq        -3.6868546263     0.2306095434     1.3410458873
Bq        -3.6847306528    -0.0302867587     0.8007417060
Bq        -3.6872086219     0.2740922604     1.4310965842
Bq        -3.6843766573    -0.0737694757     0.7106910091
Bq        -3.6875626174     0.3175749774     1.5211472810
Bq        -3.6840226617    -0.1172521927     0.6206403122
Bq        -3.6857926396     0.1001613924     1.0708937966
Bq        -3.6859757029     0.2336955020     1.1174621125
Bq        -3.6852677117     0.1467300680     0.9373607187
Bq        -3.6863296984     0.2771782190     1.2075128094
Bq        -3.6849137161     0.1032473510     0.8473100218
Bq        -3.6866836940     0.3206609360     1.2975635062
Bq        -3.6845597206     0.0597646340     0.7572593250
Bq        -3.6870376896     0.3641436530     1.3876142031
Bq        -3.6842057250     0.0162819170     0.6672086281
Bq        -3.6873916852     0.4076263700     1.4776649000
Bq        -3.6838517294    -0.0272008000     0.5771579312
Bq        -3.6856217073     0.1902127850     1.0274114156
Bq        -3.6858047706     0.3237468947     1.0739797314
Bq        -3.6850967794     0.2367814607     0.8938783377
Bq        -3.6861587662     0.3672296117     1.1640304283
Bq        -3.6847427839     0.1932987437     0.8038276408
Bq        -3.6865127617     0.4107123287     1.2540811252
Bq        -3.6843887883     0.1498160267     0.7137769439
Bq        -3.6868667573     0.4541950457     1.3441318221
Bq        -3.6840347927     0.1063333097     0.6237262470
Bq        -3.6872207529     0.4976777627     1.4341825190
Bq        -3.6836807971     0.0628505927     0.5336755502
Bq        -3.6854507750     0.2802641777     0.9839290346
Bq        -3.6856338383     0.4137982874     1.0304973504
Bq        -3.6849258472     0.3268328534     0.8503959567
Bq        -3.6859878339     0.4572810044     1.1205480473
Bq        -3.6845718516     0.2833501364     0.7603452598
Bq        -3.6863418295     0.5007637214     1.2105987442
Bq        -3.6842178560     0.2398674194     0.6702945629
Bq        -3.6866958250     0.5442464384     1.3006494411
Bq        -3.6838638604     0.1963847023     0.5802438660
Bq        -3.6870498206     0.5877291554     1.3907001379
Bq        -3.6835098649     0.1529019853     0.4901931691
Bq        -3.6852798427     0.3703155704     0.9404466535
Bq        -3.6854629060     0.5038496800     0.9870149694
Bq        -3.6847549149     0.4168842460     0.8069135756
Bq        -3.6858169016     0.5473323970     1.0770656663
Bq        -3.6844009193     0.3734015290     0.7168628787
Bq        -3.6861708972     0.5908151140     1.1671163632
Bq        -3.6840469237     0.3299188120     0.6268121819
Bq        -3.6865248928     0.6342978311     1.2571670600
Bq        -3.6836929282     0.2864360950     0.5367614850
Bq        -3.6868788883     0.6777805481     1.3472177569
Bq        -3.6833389326     0.2429533780     0.4467107881
Bq        -3.6851089105     0.4603669630     0.8969642725
Bq        -3.6852919738     0.5939010727     0.9435325884
Bq        -3.6845839826     0.5069356387     0.7634311946
Bq        -3.6856459693     0.6373837897     1.0335832852
Bq        -3.6842299870     0.4634529217     0.6733804977
Bq        -3.6859999649     0.6808665067     1.1236339821
Bq        -3.6838759915     0.4199702047     0.5833298008
Bq        -3.6863539605     0.7243492237     1.2136846790
Bq        -3.6835219959     0.3764874877     0.4932791039
Bq        -3.6867079561     0.7678319407     1.3037353759
Bq        -3.6831680003     0.3330047707     0.4032284071
Bq        -3.6849379782     0.5504183557     0.8534818915
Bq        -3.6851210415     0.6839524654     0.9000502073
Bq        -3.6844130503     0.5969870314     0.7199488136
Bq        -3.6854750371     0.7274351824     0.9901009042
Bq        -3.6840590548     0.5535043144     0.6298981167
Bq        -3.6858290326     0.7709178994     1.0801516011
Bq        -3.6837050592     0.5100215974     0.5398474198
Bq        -3.6861830282     0.8144006164     1.1702022980
Bq        -3.6833510636     0.4665388804     0.4497967229
Bq        -3.6865370238     0.8578833334     1.2602529949
Bq        -3.6829970681     0.4230561634     0.3597460260
Bq        -3.6847670459     0.6404697484     0.8099995104
Bq        -3.6849501092     0.7740038581     0.8565678263
Bq        -3.6842421181     0.6870384240     0.6764664325
Bq        -3.6853041048     0.8174865751     0.9466185232
Bq        -3.6838881225     0.6435557070     0.5864157356
Bq        -3.6856581004     0.8609692921     1.0366692201
Bq        -3.6835341269     0.6000729900     0.4963650388
Bq        -3.6860120959     0.9044520091     1.1267199169
Bq        -3.6831801314     0.5565902730     0.4063143419
Bq        -3.6863660915     0.9479347261     1.2167706138
Bq        -3.6828261358     0.5131075560     0.3162636450
Bq        -3.6845961136     0.7305211410     0.7665171294
Bq        -3.6847791769     0.8640552507     0.8130854453
Bq        -3.6840711858     0.7770898167     0.6329840515
Bq        -3.6851331725     0.9075379677     0.9031361421
Bq        -3.6837171902     0.7336070997     0.5429333546
Bq        -3.6854871681     0.9510206847     0.9931868390
Bq        -3.6833631947     0.6901243827     0.4528826577
Bq        -3.6858411637     0.9945034017     1.0832375359
Bq        -3.6830091991     0.6466416657     0.3628319608
Bq        -3.6861951592     1.0379861187     1.1732882328
Bq        -3.6826552035     0.6031589487     0.2727812640
Bq        -3.6844251814     0.8205725337     0.7230347484
Bq        -3.6846082447     0.9541066434     0.7696030642
Bq        -3.6839002535     0.8671412094     0.5895016705
Bq        -3.6849622402     0.9975893604     0.8596537611
Bq        -3.6835462580     0.8236584924     0.4994509736
Bq        -3.6853162358     1.0410720774     0.9497044580
Bq        -3.6831922624     0.7801757754     0.4094002767
Bq        -3.6856702314     1.0845547944     1.0397551549
Bq        -3.6828382668     0.7366930584     0.3193495798
Bq        -3.6860242270     1.1280375114     1.1298058518
Bq        -3.6824842712     0.6932103414     0.2292988829
Bq        -3.6842542491     0.9106239264     0.6795523673
Bq        -3.6844373124     1.0441580361     0.7261206832
Bq        -3.6837293213     0.9571926021     0.5460192894
Bq        -3.6847913080     1.0876407531     0.8161713801
Bq        -3.6833753257     0.9137098850     0.4559685925
Bq        -3.6851453035     1.1311234701     0.9062220770
Bq        -3.6830213301     0.8702271680     0.3659178957
Bq        -3.6854992991     1.1746061871     0.9962727738
Bq        -3.6826673345     0.8267444510     0.2758671988
Bq        -3.6858532947     1.2180889041     1.0863234707
Bq        -3.6823133390     0.7832617340     0.1858165019
Bq        -3.6840833168     1.0006753191     0.6360699863
Bq        -3.6842663801     1.1342094287     0.6826383022
Bq        -3.6835583890     1.0472439947     0.5025369084
Bq        -3.6846203757     1.1776921457     0.7726889990
Bq        -3.6832043934     1.0037612777     0.4124862115
Bq        -3.6849743713     1.2211748627     0.8627396959
Bq        -3.6828503978     0.9602785607     0.3224355146
Bq        -3.6853283668     1.2646575797     0.9527903928
Bq        -3.6824964023     0.9167958437     0.2323848177
Bq        -3.6856823624     1.3081402968     1.0428410897
Bq        -3.6821424067     0.8733131267     0.1423341209
Bq        -3.6839123846     1.0907267117     0.5925876053
Bq        -3.6840954479     1.2242608214     0.6391559211
Bq        -3.6833874567     1.1372953874     0.4590545274
Bq        -3.6844494434     1.2677435384     0.7292066180
Bq        -3.6830334611     1.0938126704     0.3690038305
Bq        -3.6848034390     1.3112262554     0.8192573149
Bq        -3.6826794656     1.0503299534     0.2789531336
Bq        -3.6851574346     1.3547089724     0.9093080118
Bq        -3.6823254700     1.0068472364     0.1889024367
Bq        -3.6855114301     1.3981916894     0.9993587087
Bq        -3.6819714744     0.9633645194     0.0988517398
Bq        -3.6837414523     1.1807781044     0.5491052242
Bq        -3.6839245156     1.3143122141     0.5956735401
Bq        -3.6832165244     1.2273467801     0.4155721463
Bq        -3.6842785112     1.3577949311     0.6857242370
Bq        -3.6828625289     1.1838640631     0.3255214494
Bq        -3.6846325067     1.4012776481     0.7757749339
Bq        -3.6825085333     1.1403813461     0.2354707526
Bq        -3.6849865023     1.4447603651     0.8658256307
Bq        -3.6821545377     1.0968986291     0.1454200557
Bq        -3.6853404979     1.4882430821     0.9558763276
Bq        -3.6818005421     1.0534159120     0.0553693588
Bq        -3.6835705200     1.2708294971     0.5056228432
Bq        -3.6837535833     1.4043636067     0.5521911591
Bq        -3.6830455922     1.3173981727     0.3720897653
Bq        -3.6841075789     1.4478463237     0.6422418559
Bq        -3.6826915966     1.2739154557     0.2820390684
Bq        -3.6844615744     1.4913290408     0.7322925528

1
2
3
4
5
6
7
8
9
10
11
12
13
14
15
16
17
18
19
20
21
22
23
24
25
26
27
28
29
30
31
32
33
34
35
36
37
38
39
40
41
42
43
44
45
46
47
48
49
50
51
52
53
54
55
56
57
58
59
60
61
62
63
64
65
66
67
68
69
70
71
72
73
74
75
76
77
78
79
80
81
82
83
84
85
86
87
88
89
90
91
92
93
94
95
96
97
98
99
100
101
102
103
104
105
106
107
108
109
110
111
112
113
114
115
116
117
118
119
120
121
122
123
124
125
126
127
128
129
130
131
132
133
134
135
136
137
138
139
140
141
142
143
144
145
146
147
148
149
150
151
152
153
154
155
156
157
158
159
160
161
162
163
164
165
166
167
168
169
170
171
172
173
174
175
176
177
178
179
180
181
182
183
184
185
186
187
188
189
190
191
192
193
194
195
196
197
198
199
200
201
202
203
204
205
206
207
208
209
210
211
212
213
214
215
216
217
218
219
220
221
222
223
224
225
226
227
228
229
230
231
232
233
234
235
236

