%nproc=8
%mem=1000MB
# rb3lyp/6-311+g** NMR geom=connectivity

Title

0 1
C    -4.0500558   -0.5771862    0.8136712
H    -5.0263804   -1.0082727    1.0024760
C    -3.9381552    0.6617804    0.2400876
H    -4.8252424    1.2338890   -0.0111295
C    -2.6768410    1.2433246    0.0057578
C    -1.4974121    0.5051527    0.2848253
C    -1.6508332   -0.7338728    0.9404026
H    -0.7713646   -1.2730967    1.2633753
C    -2.8898548   -1.2624035    1.1994307
H    -2.9683706   -2.2124563    1.7152676
C    -2.5773185    2.5963696   -0.4192930
H    -3.4870728    3.1412239   -0.6474055
C    -1.3741895    3.2147896   -0.4364030
H    -1.2997315    4.2742019   -0.6578144
C    -0.1719488    2.4994090   -0.1734588
C    -0.2043917    1.1018437    0.0192689
C     1.0513491    3.2042560   -0.0676222
H     1.0427344    4.2819499   -0.1896997
C     2.1942091    2.5487446    0.2579577
H     3.1168527    3.0912848    0.4334727
C     2.2216473    1.1336562    0.2934990
C     1.0486931    0.3945528    0.0302412
C     3.4483363    0.4614633    0.5573939
H     4.3095794    1.0606054    0.8334846
C     3.5427346   -0.8855926    0.4749463
H     4.4731467   -1.3939704    0.7038822
C     2.4490052   -1.6474447   -0.0196319
C     1.2150704   -1.0057258   -0.3013573
C     0.2531113   -1.7434440   -1.0216591
H    -0.6541356   -1.2535051   -1.3462847
C     0.4494193   -3.0628597   -1.3413779
H    -0.3083162   -3.5944309   -1.9054060
C     1.6251726   -3.7207967   -0.9552541
H     1.7670048   -4.7687404   -1.1927019
C     2.6109872   -3.0144177   -0.3183050
H     3.5525612   -3.4902813   -0.0646367
Bq        -3.1456435132     0.5042479904     0.5681458281
Bq        -3.1571694572     0.5778959425     0.8587368323
Bq        -3.1418015318     0.4796986730     0.4712821600
Bq        -3.1610114385     0.6024452599     0.9556005004
Bq        -3.1379595505     0.4551493557     0.3744184919
Bq        -3.1648534198     0.6269945773     1.0524641685
Bq        -3.1341175692     0.4306000383     0.2775548238
Bq        -3.1686954012     0.6515438947     1.1493278366
Bq        -3.1302755879     0.4060507209     0.1806911557
Bq        -3.1494854945     0.5287973078     0.6650094962
Bq        -3.1523545216     0.6502864571     0.7373431348
Bq        -3.1446705590     0.6011878224     0.5436157987
Bq        -3.1561965029     0.6748357745     0.8342068029
Bq        -3.1408285776     0.5766385050     0.4467521306
Bq        -3.1600384843     0.6993850919     0.9310704710
Bq        -3.1369865963     0.5520891876     0.3498884625
Bq        -3.1638804656     0.7239344092     1.0279341391
Bq        -3.1331446150     0.5275398702     0.2530247944
Bq        -3.1677224469     0.7484837266     1.1247978072
Bq        -3.1293026336     0.5029905529     0.1561611263
Bq        -3.1485125403     0.6257371397     0.6404794667
Bq        -3.1513815674     0.7472262890     0.7128131054
Bq        -3.1436976047     0.6981276543     0.5190857692
Bq        -3.1552235487     0.7717756064     0.8096767735
Bq        -3.1398556234     0.6735783369     0.4222221011
Bq        -3.1590655300     0.7963249238     0.9065404416
Bq        -3.1360136421     0.6490290195     0.3253584330
Bq        -3.1629075114     0.8208742412     1.0034041097
Bq        -3.1321716607     0.6244797022     0.2284947650
Bq        -3.1667494927     0.8454235585     1.1002677778
Bq        -3.1283296794     0.5999303848     0.1316310969
Bq        -3.1475395861     0.7226769717     0.6159494373
Bq        -3.1504086132     0.8441661210     0.6882830760
Bq        -3.1427246505     0.7950674862     0.4945557398
Bq        -3.1542505945     0.8687154384     0.7851467441
Bq        -3.1388826692     0.7705181689     0.3976920717
Bq        -3.1580925758     0.8932647557     0.8820104122
Bq        -3.1350406878     0.7459688515     0.3008284036
Bq        -3.1619345571     0.9178140731     0.9788740802
Bq        -3.1311987065     0.7214195341     0.2039647355
Bq        -3.1657765385     0.9423633905     1.0757377483
Bq        -3.1273567252     0.6968702167     0.1071010674
Bq        -3.1465666318     0.8196168036     0.5914194079
Bq        -3.1494356589     0.9411059529     0.6637530465
Bq        -3.1417516963     0.8920073182     0.4700257104
Bq        -3.1532776403     0.9656552703     0.7606167146
Bq        -3.1379097149     0.8674580008     0.3731620423
Bq        -3.1571196216     0.9902045877     0.8574803827
Bq        -3.1340677336     0.8429086834     0.2762983742
Bq        -3.1609616029     1.0147539051     0.9543440508
Bq        -3.1302257523     0.8183593660     0.1794347061
Bq        -3.1648035843     1.0393032224     1.0512077189
Bq        -3.1263837710     0.7938100487     0.0825710380
Bq        -3.1455936776     0.9165566355     0.5668893785
Bq        -3.1484627047     1.0380457849     0.6392230171
Bq        -3.1407787421     0.9889471501     0.4454956809
Bq        -3.1523046860     1.0625951022     0.7360866852
Bq        -3.1369367607     0.9643978327     0.3486320129
Bq        -3.1561466674     1.0871444196     0.8329503533
Bq        -3.1330947794     0.9398485154     0.2517683448
Bq        -3.1599886487     1.1116937370     0.9298140214
Bq        -3.1292527981     0.9152991980     0.1549046767
Bq        -3.1638306300     1.1362430544     1.0266776895
Bq        -3.1254108167     0.8907498806     0.0580410086
Bq        -3.1446207234     1.0134964675     0.5423593490
Bq        -3.1474897505     1.1349856168     0.6146929877
Bq        -3.1398057878     1.0858869821     0.4209656515
Bq        -3.1513317318     1.1595349342     0.7115566558
Bq        -3.1359638065     1.0613376647     0.3241019834
Bq        -3.1551737131     1.1840842516     0.8084203239
Bq        -3.1321218252     1.0367883473     0.2272383153
Bq        -3.1590156945     1.2086335689     0.9052839920
Bq        -3.1282798438     1.0122390299     0.1303746472
Bq        -3.1628576758     1.2331828863     1.0021476601
Bq        -3.1244378625     0.9876897125     0.0335109792
Bq        -3.1436477692     1.1104362994     0.5178293196
Bq        -3.1465167963     1.2319254487     0.5901629583
Bq        -3.1388328336     1.1828268140     0.3964356221
Bq        -3.1503587776     1.2564747661     0.6870266264
Bq        -3.1349908523     1.1582774966     0.2995719540
Bq        -3.1542007589     1.2810240835     0.7838902944
Bq        -3.1311488709     1.1337281792     0.2027082859
Bq        -3.1580427403     1.3055734009     0.8807539625
Bq        -3.1273068896     1.1091788619     0.1058446178
Bq        -3.1618847216     1.3301227182     0.9776176306
Bq        -3.1234649083     1.0846295445     0.0089809497
Bq        -3.1426748149     1.2073761314     0.4932992902
Bq        -3.1455438420     1.3288652807     0.5656329288
Bq        -3.1378598794     1.2797666459     0.3719055927
Bq        -3.1493858234     1.3534145981     0.6624965969
Bq        -3.1340178981     1.2552173286     0.2750419246
Bq        -3.1532278047     1.3779639154     0.7593602650
Bq        -3.1301759167     1.2306680112     0.1781782565
Bq        -3.1570697860     1.4025132328     0.8562239331
Bq        -3.1263339354     1.2061186938     0.0813145884
Bq        -3.1609117674     1.4270625502     0.9530876012
Bq        -3.1224919541     1.1815693764    -0.0155490797
Bq        -3.1417018607     1.3043159633     0.4687692608
Bq        -3.1445708878     1.4258051126     0.5411028994
Bq        -3.1368869252     1.3767064779     0.3473755632
Bq        -3.1484128691     1.4503544300     0.6379665675
Bq        -3.1330449438     1.3521571605     0.2505118951
Bq        -3.1522548505     1.4749037474     0.7348302356
Bq        -3.1292029625     1.3276078431     0.1536482271
Bq        -3.1560968318     1.4994530647     0.8316939037
Bq        -3.1253609812     1.3030585257     0.0567845590
Bq        -3.1599388131     1.5240023821     0.9285575718
Bq        -3.1215189998     1.2785092084    -0.0400791091
Bq        -3.1407289065     1.4012557952     0.4442392313
Bq        -3.1435979336     1.5227449446     0.5165728700
Bq        -3.1359139709     1.4736463098     0.3228455338
Bq        -3.1474399149     1.5472942619     0.6134365381
Bq        -3.1320719896     1.4490969924     0.2259818657
Bq        -3.1512818962     1.5718435793     0.7103002062
Bq        -3.1282300083     1.4245476751     0.1291181976
Bq        -3.1551238776     1.5963928967     0.8071638743
Bq        -3.1243880269     1.3999983577     0.0322545295
Bq        -3.1589658589     1.6209422141     0.9040275423
Bq        -3.1205460456     1.3754490403    -0.0646091386
Bq        -3.1397559523     1.4981956272     0.4197092019
Bq        -3.1426249794     1.6196847765     0.4920428406
Bq        -3.1349410167     1.5705861417     0.2983155044
Bq        -3.1464669607     1.6442340939     0.5889065086
Bq        -3.1310990354     1.5460368244     0.2014518363
Bq        -3.1503089420     1.6687834113     0.6857701767
Bq        -3.1272570540     1.5214875070     0.1045881682
Bq        -3.1541509234     1.6933327286     0.7826338448
Bq        -3.1234150727     1.4969381896     0.0077245001
Bq        -3.1579929047     1.7178820460     0.8794975129
Bq        -3.1195730914     1.4723888722    -0.0891391680
Bq        -3.1387829980     1.5951354591     0.3951791725
Bq        -3.1416520251     1.7166246084     0.4675128111
Bq        -3.1339680625     1.6675259737     0.2737854750
Bq        -3.1454940065     1.7411739258     0.5643764792
Bq        -3.1301260812     1.6429766563     0.1769218069
Bq        -3.1493359878     1.7657232432     0.6612401473
Bq        -3.1262840998     1.6184273389     0.0800581388
Bq        -3.1531779691     1.7902725606     0.7581038154
Bq        -3.1224421185     1.5938780216    -0.0168055293
Bq        -3.1570199505     1.8148218779     0.8549674835
Bq        -3.1186001372     1.5693287042    -0.1136691974
Bq        -3.1378100438     1.6920752911     0.3706491430
Bq        -3.1406790709     1.8135644404     0.4429827817
Bq        -3.1329951083     1.7644658056     0.2492554455
Bq        -3.1445210522     1.8381137578     0.5398464498
Bq        -3.1291531269     1.7399164882     0.1523917774
Bq        -3.1483630336     1.8626630751     0.6367101179
Bq        -3.1253111456     1.7153671709     0.0555281093
Bq        -3.1522050149     1.8872123925     0.7335737860
Bq        -3.1214691643     1.6908178535    -0.0413355587
Bq        -3.1560469962     1.9117617099     0.8304374541
Bq        -3.1176271829     1.6662685361    -0.1381992268
Bq        -3.1368370896     1.7890151230     0.3461191136
Bq        -3.1397061167     1.9105042723     0.4184527523
Bq        -3.1320221540     1.8614056376     0.2247254161
Bq        -3.1435480980     1.9350535897     0.5153164204
Bq        -3.1281801727     1.8368563202     0.1278617480
Bq        -3.1473900794     1.9596029071     0.6121800885
Bq        -3.1243381914     1.8123070028     0.0309980799
Bq        -3.1512320607     1.9841522244     0.7090437565
Bq        -3.1204962100     1.7877576854    -0.0658655882
Bq        -3.1550740420     2.0087015418     0.8059074246
Bq        -3.1166542287     1.7632083681    -0.1627292563
Bq        -3.1358641354     1.8859549549     0.3215890842
Bq        -3.1387331625     2.0074441043     0.3939227229
Bq        -3.1310491998     1.9583454695     0.2001953867
Bq        -3.1425751438     2.0319934216     0.4907863909
Bq        -3.1272072185     1.9337961521     0.1033317186
Bq        -3.1464171251     2.0565427390     0.5876500590
Bq        -3.1233652372     1.9092468348     0.0064680505
Bq        -3.1502591065     2.0810920564     0.6845137271
Bq        -3.1195232558     1.8846975174    -0.0903956176
Bq        -3.1541010878     2.1056413738     0.7813773952
Bq        -3.1156812745     1.8601482000    -0.1872592857
Bq        -3.1348911811     1.9828947869     0.2970590548
Bq        -3.1377602082     2.1043839362     0.3693926934
Bq        -3.1300762456     2.0552853014     0.1756653572
Bq        -3.1416021896     2.1289332536     0.4662563615
Bq        -3.1262342643     2.0307359841     0.0788016892
Bq        -3.1454441709     2.1534825709     0.5631200296
Bq        -3.1223922829     2.0061866667    -0.0180619789
Bq        -3.1492861522     2.1780318883     0.6599836977
Bq        -3.1185503016     1.9816373493    -0.1149256470
Bq        -3.1531281336     2.2025812057     0.7568473658
Bq        -3.1147083203     1.9570880319    -0.2117893151
Bq        -3.1339182269     2.0798346188     0.2725290253
Bq        -3.1367872540     2.2013237681     0.3448626640
Bq        -3.1291032914     2.1522251334     0.1511353278
Bq        -3.1406292353     2.2258730855     0.4417263321
Bq        -3.1252613100     2.1276758160     0.0542716597
Bq        -3.1444712167     2.2504224029     0.5385900002
Bq        -3.1214193287     2.1031264986    -0.0425920084
Bq        -3.1483131980     2.2749717203     0.6354536683
Bq        -3.1175773474     2.0785771813    -0.1394556765
Bq        -3.1521551793     2.2995210376     0.7323173364
Bq        -3.1137353660     2.0540278639    -0.2363193445
Bq        -3.1329452727     2.1767744508     0.2479989959
Bq        -3.1358142998     2.2982636001     0.3203326346
Bq        -3.1281303371     2.2491649653     0.1266052984
Bq        -3.1396562811     2.3228129174     0.4171963027

1
2
3
4
5
6
7
8
9
10
11
12
13
14
15
16
17
18
19
20
21
22
23
24
25
26
27
28
29
30
31
32
33
34
35
36
37
38
39
40
41
42
43
44
45
46
47
48
49
50
51
52
53
54
55
56
57
58
59
60
61
62
63
64
65
66
67
68
69
70
71
72
73
74
75
76
77
78
79
80
81
82
83
84
85
86
87
88
89
90
91
92
93
94
95
96
97
98
99
100
101
102
103
104
105
106
107
108
109
110
111
112
113
114
115
116
117
118
119
120
121
122
123
124
125
126
127
128
129
130
131
132
133
134
135
136
137
138
139
140
141
142
143
144
145
146
147
148
149
150
151
152
153
154
155
156
157
158
159
160
161
162
163
164
165
166
167
168
169
170
171
172
173
174
175
176
177
178
179
180
181
182
183
184
185
186
187
188
189
190
191
192
193
194
195
196
197
198
199
200
201
202
203
204
205
206
207
208
209
210
211
212
213
214
215
216
217
218
219
220
221
222
223
224
225
226
227
228
229
230
231
232
233
234
235
236

