%nproc=8
%mem=1000MB
# rb3lyp/6-311+g** NMR geom=connectivity

Title

0 1
C    -4.0500558   -0.5771862    0.8136712
H    -5.0263804   -1.0082727    1.0024760
C    -3.9381552    0.6617804    0.2400876
H    -4.8252424    1.2338890   -0.0111295
C    -2.6768410    1.2433246    0.0057578
C    -1.4974121    0.5051527    0.2848253
C    -1.6508332   -0.7338728    0.9404026
H    -0.7713646   -1.2730967    1.2633753
C    -2.8898548   -1.2624035    1.1994307
H    -2.9683706   -2.2124563    1.7152676
C    -2.5773185    2.5963696   -0.4192930
H    -3.4870728    3.1412239   -0.6474055
C    -1.3741895    3.2147896   -0.4364030
H    -1.2997315    4.2742019   -0.6578144
C    -0.1719488    2.4994090   -0.1734588
C    -0.2043917    1.1018437    0.0192689
C     1.0513491    3.2042560   -0.0676222
H     1.0427344    4.2819499   -0.1896997
C     2.1942091    2.5487446    0.2579577
H     3.1168527    3.0912848    0.4334727
C     2.2216473    1.1336562    0.2934990
C     1.0486931    0.3945528    0.0302412
C     3.4483363    0.4614633    0.5573939
H     4.3095794    1.0606054    0.8334846
C     3.5427346   -0.8855926    0.4749463
H     4.4731467   -1.3939704    0.7038822
C     2.4490052   -1.6474447   -0.0196319
C     1.2150704   -1.0057258   -0.3013573
C     0.2531113   -1.7434440   -1.0216591
H    -0.6541356   -1.2535051   -1.3462847
C     0.4494193   -3.0628597   -1.3413779
H    -0.3083162   -3.5944309   -1.9054060
C     1.6251726   -3.7207967   -0.9552541
H     1.7670048   -4.7687404   -1.1927019
C     2.6109872   -3.0144177   -0.3183050
H     3.5525612   -3.4902813   -0.0646367
Bq        -0.7273762438     0.3352094263     0.2818146950
Bq        -0.7708041029     0.3499498816     0.5782885387
Bq        -0.7129002907     0.3302959413     0.1829900804
Bq        -0.7852800560     0.3548633667     0.6771131533
Bq        -0.6984243377     0.3253824562     0.0841654658
Bq        -0.7997560090     0.3597768518     0.7759377679
Bq        -0.6839483847     0.3204689711    -0.0146591488
Bq        -0.8142319621     0.3646903368     0.8747623825
Bq        -0.6694724316     0.3155554860    -0.1134837634
Bq        -0.7418521968     0.3401229114     0.3806393095
Bq        -0.7556160159     0.4449156119     0.4746023194
Bq        -0.7266641098     0.4350886417     0.2769530902
Bq        -0.7700919690     0.4498290970     0.5734269340
Bq        -0.7121881568     0.4301751566     0.1781284756
Bq        -0.7845679220     0.4547425820     0.6722515485
Bq        -0.6977122038     0.4252616716     0.0793038610
Bq        -0.7990438751     0.4596560671     0.7710761631
Bq        -0.6832362507     0.4203481865    -0.0195207536
Bq        -0.8135198281     0.4645695522     0.8699007777
Bq        -0.6687602977     0.4154347014    -0.1183453681
Bq        -0.7411400629     0.4400021268     0.3757777048
Bq        -0.7549038820     0.5447948273     0.4697407146
Bq        -0.7259519759     0.5349678571     0.2720914854
Bq        -0.7693798350     0.5497083123     0.5685653292
Bq        -0.7114760229     0.5300543720     0.1732668708
Bq        -0.7838557881     0.5546217974     0.6673899438
Bq        -0.6970000698     0.5251408869     0.0744422563
Bq        -0.7983317411     0.5595352825     0.7662145584
Bq        -0.6825241168     0.5202274018    -0.0243823583
Bq        -0.8128076942     0.5644487676     0.8650391729
Bq        -0.6680481637     0.5153139168    -0.1232069729
Bq        -0.7404279289     0.5398813422     0.3709161000
Bq        -0.7541917480     0.6446740426     0.4648791098
Bq        -0.7252398420     0.6348470725     0.2672298807
Bq        -0.7686677011     0.6495875277     0.5637037244
Bq        -0.7107638889     0.6299335874     0.1684052661
Bq        -0.7831436541     0.6545010128     0.6625283390
Bq        -0.6962879359     0.6250201023     0.0695806515
Bq        -0.7976196072     0.6594144979     0.7613529536
Bq        -0.6818119828     0.6201066172    -0.0292439631
Bq        -0.8120955602     0.6643279830     0.8601775682
Bq        -0.6673360298     0.6151931321    -0.1280685777
Bq        -0.7397157950     0.6397605576     0.3660544953
Bq        -0.7534796141     0.7445532580     0.4600175051
Bq        -0.7245277080     0.7347262878     0.2623682759
Bq        -0.7679555672     0.7494667431     0.5588421197
Bq        -0.7100517550     0.7298128028     0.1635436613
Bq        -0.7824315202     0.7543802282     0.6576667342
Bq        -0.6955758019     0.7248993177     0.0647190467
Bq        -0.7969074732     0.7592937133     0.7564913488
Bq        -0.6810998489     0.7199858326    -0.0341055679
Bq        -0.8113834263     0.7642071983     0.8553159634
Bq        -0.6666238958     0.7150723475    -0.1329301824
Bq        -0.7390036611     0.7396397729     0.3611928905
Bq        -0.7527674802     0.8444324734     0.4551559003
Bq        -0.7238155741     0.8346055032     0.2575066711
Bq        -0.7672434332     0.8493459585     0.5539805149
Bq        -0.7093396210     0.8296920181     0.1586820565
Bq        -0.7817193863     0.8542594436     0.6528051295
Bq        -0.6948636680     0.8247785331     0.0598574420
Bq        -0.7961953393     0.8591729286     0.7516297441
Bq        -0.6803877149     0.8198650480    -0.0389671726
Bq        -0.8106712923     0.8640864137     0.8504543586
Bq        -0.6659117619     0.8149515629    -0.1377917872
Bq        -0.7382915271     0.8395189883     0.3563312857
Bq        -0.7520553462     0.9443116888     0.4502942955
Bq        -0.7231034401     0.9344847186     0.2526450664
Bq        -0.7665312993     0.9492251739     0.5491189101
Bq        -0.7086274871     0.9295712335     0.1538204518
Bq        -0.7810072523     0.9541386589     0.6479435247
Bq        -0.6941515340     0.9246577484     0.0549958372
Bq        -0.7954832054     0.9590521440     0.7467681393
Bq        -0.6796755810     0.9197442634    -0.0438287774
Bq        -0.8099591584     0.9639656291     0.8455927539
Bq        -0.6651996280     0.9148307783    -0.1426533920
Bq        -0.7375793932     0.9393982037     0.3514696810
Bq        -0.7513432123     1.0441909041     0.4454326908
Bq        -0.7223913062     1.0343639340     0.2477834616
Bq        -0.7658191653     1.0491043892     0.5442573054
Bq        -0.7079153531     1.0294504489     0.1489588470
Bq        -0.7802951184     1.0540178743     0.6430819199
Bq        -0.6934394001     1.0245369638     0.0501342324
Bq        -0.7947710714     1.0589313594     0.7419065345
Bq        -0.6789634471     1.0196234787    -0.0486903822
Bq        -0.8092470245     1.0638448445     0.8407311491
Bq        -0.6644874940     1.0147099936    -0.1475149967
Bq        -0.7368672592     1.0392774191     0.3466080762
Bq        -0.7506310783     1.1440701195     0.4405710860
Bq        -0.7216791723     1.1342431494     0.2429218568
Bq        -0.7651070314     1.1489836046     0.5393957006
Bq        -0.7072032192     1.1293296643     0.1440972422
Bq        -0.7795829844     1.1538970897     0.6382203152
Bq        -0.6927272662     1.1244161792     0.0452726277
Bq        -0.7940589375     1.1588105748     0.7370449298
Bq        -0.6782513131     1.1195026941    -0.0535519869
Bq        -0.8085348905     1.1637240599     0.8358695443
Bq        -0.6637753601     1.1145892090    -0.1523766015
Bq        -0.7361551253     1.1391566344     0.3417464714
Bq        -0.7499189444     1.2439493349     0.4357094812
Bq        -0.7209670383     1.2341223647     0.2380602521
Bq        -0.7643948974     1.2488628200     0.5345340958
Bq        -0.7064910853     1.2292088797     0.1392356375
Bq        -0.7788708505     1.2537763051     0.6333587104
Bq        -0.6920151322     1.2242953946     0.0404110229
Bq        -0.7933468035     1.2586897901     0.7321833250
Bq        -0.6775391792     1.2193819095    -0.0584135917
Bq        -0.8078227566     1.2636032752     0.8310079396
Bq        -0.6630632261     1.2144684244    -0.1572382063
Bq        -0.7354429914     1.2390358498     0.3368848667
Bq        -0.7492068105     1.3438285503     0.4308478765
Bq        -0.7202549044     1.3340015801     0.2331986473
Bq        -0.7636827635     1.3487420354     0.5296724911
Bq        -0.7057789513     1.3290880950     0.1343740327
Bq        -0.7781587165     1.3536555204     0.6284971056
Bq        -0.6913029983     1.3241746099     0.0355494181
Bq        -0.7926346696     1.3585690055     0.7273217202
Bq        -0.6768270452     1.3192611249    -0.0632751965
Bq        -0.8071106226     1.3634824906     0.8261463348
Bq        -0.6623510922     1.3143476398    -0.1620998110
Bq        -0.7347308574     1.3389150652     0.3320232619
Bq        -0.7484946765     1.4437077657     0.4259862717
Bq        -0.7195427704     1.4338807955     0.2283370425
Bq        -0.7629706296     1.4486212507     0.5248108863
Bq        -0.7050668174     1.4289673104     0.1295124279
Bq        -0.7774465826     1.4535347358     0.6236355009
Bq        -0.6905908643     1.4240538253     0.0306878134
Bq        -0.7919225356     1.4584482209     0.7224601155
Bq        -0.6761149113     1.4191403402    -0.0681368012
Bq        -0.8063984887     1.4633617060     0.8212847300
Bq        -0.6616389582     1.4142268552    -0.1669614158
Bq        -0.7340187235     1.4387942806     0.3271616571
Bq        -0.7477825426     1.5435869810     0.4211246669
Bq        -0.7188306365     1.5337600109     0.2234754378
Bq        -0.7622584956     1.5485004661     0.5199492815
Bq        -0.7043546834     1.5288465258     0.1246508232
Bq        -0.7767344487     1.5534139512     0.6187738961
Bq        -0.6898787304     1.5239330407     0.0258262086
Bq        -0.7912104017     1.5583274363     0.7175985107
Bq        -0.6754027774     1.5190195556    -0.0729984060
Bq        -0.8056863548     1.5632409214     0.8164231253
Bq        -0.6609268243     1.5141060705    -0.1718230206
Bq        -0.7333065895     1.5386734959     0.3223000524
Bq        -0.7470704086     1.6434661964     0.4162630622
Bq        -0.7181185025     1.6336392262     0.2186138330
Bq        -0.7615463617     1.6483796815     0.5150876768
Bq        -0.7036425495     1.6287257412     0.1197892184
Bq        -0.7760223147     1.6532931666     0.6139122913
Bq        -0.6891665965     1.6238122561     0.0209646038
Bq        -0.7904982678     1.6582066517     0.7127369059
Bq        -0.6746906434     1.6188987710    -0.0778600108
Bq        -0.8049742208     1.6631201367     0.8115615205
Bq        -0.6602146904     1.6139852859    -0.1766846253
Bq        -0.7325944556     1.6385527113     0.3174384476
Bq        -0.7463582747     1.7433454118     0.4114014574
Bq        -0.7174063686     1.7335184416     0.2137522282
Bq        -0.7608342277     1.7482588969     0.5102260720
Bq        -0.7029304156     1.7286049565     0.1149276136
Bq        -0.7753101808     1.7531723819     0.6090506866
Bq        -0.6884544625     1.7236914715     0.0161029991
Bq        -0.7897861338     1.7580858670     0.7078753012
Bq        -0.6739785095     1.7187779864    -0.0827216155
Bq        -0.8042620869     1.7629993521     0.8066999157
Bq        -0.6595025564     1.7138645013    -0.1815462301
Bq        -0.7318823216     1.7384319267     0.3125768428
Bq        -0.7456461407     1.8432246272     0.4065398526
Bq        -0.7166942347     1.8333976570     0.2088906235
Bq        -0.7601220938     1.8481381122     0.5053644672
Bq        -0.7022182816     1.8284841719     0.1100660089
Bq        -0.7745980468     1.8530515973     0.6041890818
Bq        -0.6877423286     1.8235706868     0.0112413943
Bq        -0.7890739999     1.8579650824     0.7030136964
Bq        -0.6732663755     1.8186572017    -0.0875832203
Bq        -0.8035499529     1.8628785675     0.8018383110
Bq        -0.6587904225     1.8137437167    -0.1864078349
Bq        -0.7311701877     1.8383111421     0.3077152381
Bq        -0.7449340068     1.9431038425     0.4016782479
Bq        -0.7159821007     1.9332768724     0.2040290187
Bq        -0.7594099599     1.9480173276     0.5005028625
Bq        -0.7015061477     1.9283633873     0.1052044041
Bq        -0.7738859129     1.9529308127     0.5993274770
Bq        -0.6870301946     1.9234499022     0.0063797895
Bq        -0.7883618659     1.9578442978     0.6981520916
Bq        -0.6725542416     1.9185364171    -0.0924448251
Bq        -0.8028378190     1.9627577829     0.7969767062
Bq        -0.6580782885     1.9136229320    -0.1912694396
Bq        -0.7304580538     1.9381903575     0.3028536333
Bq        -0.7442218729     2.0429830579     0.3968166431
Bq        -0.7152699668     2.0331560878     0.1991674139
Bq        -0.7586978259     2.0478965430     0.4956412577
Bq        -0.7007940137     2.0282426027     0.1003427994
Bq        -0.7731737790     2.0528100281     0.5944658723
Bq        -0.6863180607     2.0233291176     0.0015181848
Bq        -0.7876497320     2.0577235132     0.6932904869
Bq        -0.6718421076     2.0184156325    -0.0973064298
Bq        -0.8021256850     2.0626369982     0.7921151014
Bq        -0.6573661546     2.0135021474    -0.1961310444
Bq        -0.7297459198     2.0380695728     0.2979920285
Bq        -0.7435097389     2.1428622733     0.3919550383
Bq        -0.7145578328     2.1330353031     0.1943058092
Bq        -0.7579856920     2.1477757584     0.4907796529

1
2
3
4
5
6
7
8
9
10
11
12
13
14
15
16
17
18
19
20
21
22
23
24
25
26
27
28
29
30
31
32
33
34
35
36
37
38
39
40
41
42
43
44
45
46
47
48
49
50
51
52
53
54
55
56
57
58
59
60
61
62
63
64
65
66
67
68
69
70
71
72
73
74
75
76
77
78
79
80
81
82
83
84
85
86
87
88
89
90
91
92
93
94
95
96
97
98
99
100
101
102
103
104
105
106
107
108
109
110
111
112
113
114
115
116
117
118
119
120
121
122
123
124
125
126
127
128
129
130
131
132
133
134
135
136
137
138
139
140
141
142
143
144
145
146
147
148
149
150
151
152
153
154
155
156
157
158
159
160
161
162
163
164
165
166
167
168
169
170
171
172
173
174
175
176
177
178
179
180
181
182
183
184
185
186
187
188
189
190
191
192
193
194
195
196
197
198
199
200
201
202
203
204
205
206
207
208
209
210
211
212
213
214
215
216
217
218
219
220
221
222
223
224
225
226
227
228
229
230
231
232
233
234
235
236

