%nproc=8
%mem=1000MB
# rb3lyp/6-311+g** NMR geom=connectivity

Title

0 1
C    -4.0500558   -0.5771862    0.8136712
H    -5.0263804   -1.0082727    1.0024760
C    -3.9381552    0.6617804    0.2400876
H    -4.8252424    1.2338890   -0.0111295
C    -2.6768410    1.2433246    0.0057578
C    -1.4974121    0.5051527    0.2848253
C    -1.6508332   -0.7338728    0.9404026
H    -0.7713646   -1.2730967    1.2633753
C    -2.8898548   -1.2624035    1.1994307
H    -2.9683706   -2.2124563    1.7152676
C    -2.5773185    2.5963696   -0.4192930
H    -3.4870728    3.1412239   -0.6474055
C    -1.3741895    3.2147896   -0.4364030
H    -1.2997315    4.2742019   -0.6578144
C    -0.1719488    2.4994090   -0.1734588
C    -0.2043917    1.1018437    0.0192689
C     1.0513491    3.2042560   -0.0676222
H     1.0427344    4.2819499   -0.1896997
C     2.1942091    2.5487446    0.2579577
H     3.1168527    3.0912848    0.4334727
C     2.2216473    1.1336562    0.2934990
C     1.0486931    0.3945528    0.0302412
C     3.4483363    0.4614633    0.5573939
H     4.3095794    1.0606054    0.8334846
C     3.5427346   -0.8855926    0.4749463
H     4.4731467   -1.3939704    0.7038822
C     2.4490052   -1.6474447   -0.0196319
C     1.2150704   -1.0057258   -0.3013573
C     0.2531113   -1.7434440   -1.0216591
H    -0.6541356   -1.2535051   -1.3462847
C     0.4494193   -3.0628597   -1.3413779
H    -0.3083162   -3.5944309   -1.9054060
C     1.6251726   -3.7207967   -0.9552541
H     1.7670048   -4.7687404   -1.1927019
C     2.6109872   -3.0144177   -0.3183050
H     3.5525612   -3.4902813   -0.0646367
Bq        -3.1883119629    -2.1449515071     1.7127512926
Bq        -3.1914979230    -1.7536070540     2.5232075645
Bq        -3.1879579673    -2.1884342241     1.6227005957
Bq        -3.1897279452    -1.9710206391     2.0729540801
Bq        -3.1899110085    -1.8374865294     2.1195223959
Bq        -3.1892030173    -1.9244519634     1.9394210022
Bq        -3.1902650040    -1.7940038124     2.2095730928
Bq        -3.1888490217    -1.9679346804     1.8493703053
Bq        -3.1906189996    -1.7505210954     2.2996237897
Bq        -3.1884950262    -2.0114173974     1.7593196084
Bq        -3.1909729952    -1.7070383784     2.3896744866
Bq        -3.1881410306    -2.0549001144     1.6692689115
Bq        -3.1913269908    -1.6635556614     2.4797251835
Bq        -3.1877870350    -2.0983828314     1.5792182146
Bq        -3.1895570129    -1.8809692464     2.0294716991
Bq        -3.1897400762    -1.7474351367     2.0760400149
Bq        -3.1890320850    -1.8344005707     1.8959386211
Bq        -3.1900940718    -1.7039524197     2.1660907118
Bq        -3.1886780895    -1.8778832877     1.8058879243
Bq        -3.1904480673    -1.6604697027     2.2561414087
Bq        -3.1883240939    -1.9213660047     1.7158372274
Bq        -3.1908020629    -1.6169869857     2.3461921056
Bq        -3.1879700983    -1.9648487217     1.6257865305
Bq        -3.1911560585    -1.5735042687     2.4362428024
Bq        -3.1876161028    -2.0083314388     1.5357358336
Bq        -3.1893860806    -1.7909178537     1.9859893180
Bq        -3.1895691439    -1.6573837441     2.0325576339
Bq        -3.1888611528    -1.7443491781     1.8524562401
Bq        -3.1899231395    -1.6139010270     2.1226083308
Bq        -3.1885071572    -1.7878318951     1.7624055432
Bq        -3.1902771351    -1.5704183100     2.2126590276
Bq        -3.1881531616    -1.8313146121     1.6723548463
Bq        -3.1906311306    -1.5269355930     2.3027097245
Bq        -3.1877991661    -1.8747973291     1.5823041495
Bq        -3.1909851262    -1.4834528760     2.3927604214
Bq        -3.1874451705    -1.9182800461     1.4922534526
Bq        -3.1892151483    -1.7008664611     1.9425069370
Bq        -3.1893982116    -1.5673323514     1.9890752528
Bq        -3.1886902205    -1.6542977854     1.8089738591
Bq        -3.1897522072    -1.5238496344     2.0791259497
Bq        -3.1883362249    -1.6977805024     1.7189231622
Bq        -3.1901062028    -1.4803669174     2.1691766466
Bq        -3.1879822294    -1.7412632194     1.6288724653
Bq        -3.1904601984    -1.4368842004     2.2592273435
Bq        -3.1876282338    -1.7847459364     1.5388217684
Bq        -3.1908141939    -1.3934014834     2.3492780404
Bq        -3.1872742382    -1.8282286534     1.4487710715
Bq        -3.1890442161    -1.6108150684     1.8990245560
Bq        -3.1892272794    -1.4772809587     1.9455928718
Bq        -3.1885192882    -1.5642463927     1.7654914780
Bq        -3.1895812749    -1.4337982417     2.0356435687
Bq        -3.1881652927    -1.6077291097     1.6754407812
Bq        -3.1899352705    -1.3903155247     2.1256942656
Bq        -3.1878112971    -1.6512118267     1.5853900843
Bq        -3.1902892661    -1.3468328077     2.2157449625
Bq        -3.1874573015    -1.6946945437     1.4953393874
Bq        -3.1906432617    -1.3033500907     2.3057956593
Bq        -3.1871033059    -1.7381772607     1.4052886905
Bq        -3.1888732838    -1.5207636757     1.8555421749
Bq        -3.1890563471    -1.3872295660     1.9021104908
Bq        -3.1883483560    -1.4741950001     1.7220090970
Bq        -3.1894103427    -1.3437468490     1.9921611877
Bq        -3.1879943604    -1.5176777171     1.6319584001
Bq        -3.1897643382    -1.3002641320     2.0822118845
Bq        -3.1876403648    -1.5611604341     1.5419077032
Bq        -3.1901183338    -1.2567814150     2.1722625814
Bq        -3.1872863692    -1.6046431511     1.4518570064
Bq        -3.1904723294    -1.2132986980     2.2623132783
Bq        -3.1869323737    -1.6481258681     1.3618063095
Bq        -3.1887023515    -1.4307122830     1.8120597939
Bq        -3.1888854148    -1.2971781734     1.8586281097
Bq        -3.1881774237    -1.3841436074     1.6785267160
Bq        -3.1892394104    -1.2536954564     1.9486788066
Bq        -3.1878234281    -1.4276263244     1.5884760191
Bq        -3.1895934060    -1.2102127394     2.0387295035
Bq        -3.1874694325    -1.4711090414     1.4984253222
Bq        -3.1899474015    -1.1667300224     2.1287802004
Bq        -3.1871154370    -1.5145917584     1.4083746253
Bq        -3.1903013971    -1.1232473054     2.2188308973
Bq        -3.1867614414    -1.5580744754     1.3183239284
Bq        -3.1885314193    -1.3406608904     1.7685774129
Bq        -3.1887144826    -1.2071267807     1.8151457287
Bq        -3.1880064914    -1.2940922147     1.6350443349
Bq        -3.1890684781    -1.1636440637     1.9051964256
Bq        -3.1876524958    -1.3375749317     1.5449936381
Bq        -3.1894224737    -1.1201613467     1.9952471225
Bq        -3.1872985003    -1.3810576487     1.4549429412
Bq        -3.1897764693    -1.0766786297     2.0852978194
Bq        -3.1869445047    -1.4245403657     1.3648922443
Bq        -3.1901304648    -1.0331959127     2.1753485162
Bq        -3.1865905091    -1.4680230827     1.2748415474
Bq        -3.1883604870    -1.2506094977     1.7250950318
Bq        -3.1885435503    -1.1170753880     1.7716633477
Bq        -3.1878355591    -1.2040408220     1.5915619539
Bq        -3.1888975459    -1.0735926710     1.8617140446
Bq        -3.1874815636    -1.2475235390     1.5015112570
Bq        -3.1892515414    -1.0301099540     1.9517647414
Bq        -3.1871275680    -1.2910062560     1.4114605601
Bq        -3.1896055370    -0.9866272370     2.0418154383
Bq        -3.1867735724    -1.3344889731     1.3214098633
Bq        -3.1899595326    -0.9431445200     2.1318661352
Bq        -3.1864195768    -1.3779716901     1.2313591664
Bq        -3.1881895547    -1.1605581050     1.6816126508
Bq        -3.1883726180    -1.0270239954     1.7281809666
Bq        -3.1876646269    -1.1139894294     1.5480795729
Bq        -3.1887266136    -0.9835412784     1.8182316635
Bq        -3.1873106313    -1.1574721464     1.4580288760
Bq        -3.1890806092    -0.9400585614     1.9082823604
Bq        -3.1869566357    -1.2009548634     1.3679781791
Bq        -3.1894346047    -0.8965758443     1.9983330573
Bq        -3.1866026401    -1.2444375804     1.2779274822
Bq        -3.1897886003    -0.8530931273     2.0883837542
Bq        -3.1862486446    -1.2879202974     1.1878767854
Bq        -3.1880186224    -1.0705067124     1.6381302698
Bq        -3.1882016857    -0.9369726027     1.6846985856
Bq        -3.1874936946    -1.0239380367     1.5045971919
Bq        -3.1885556813    -0.8934898857     1.7747492825
Bq        -3.1871396990    -1.0674207537     1.4145464950
Bq        -3.1889096769    -0.8500071687     1.8647999794
Bq        -3.1867857034    -1.1109034707     1.3244957981
Bq        -3.1892636725    -0.8065244517     1.9548506763
Bq        -3.1864317079    -1.1543861877     1.2344451012
Bq        -3.1896176680    -0.7630417347     2.0449013731
Bq        -3.1860777123    -1.1978689047     1.1443944043
Bq        -3.1878476902    -0.9804553197     1.5946478887
Bq        -3.1880307535    -0.8469212100     1.6412162046
Bq        -3.1873227623    -0.9338866440     1.4611148108
Bq        -3.1883847490    -0.8034384930     1.7312669015
Bq        -3.1869687667    -0.9773693610     1.3710641139
Bq        -3.1887387446    -0.7599557760     1.8213175983
Bq        -3.1866147712    -1.0208520780     1.2810134171
Bq        -3.1890927402    -0.7164730590     1.9113682952
Bq        -3.1862607756    -1.0643347950     1.1909627202
Bq        -3.1894467357    -0.6729903420     2.0014189921
Bq        -3.1859067800    -1.1078175120     1.1009120233
Bq        -3.1876767579    -0.8904039270     1.5511655077
Bq        -3.1878598212    -0.7568698173     1.5977338236
Bq        -3.1871518300    -0.8438352514     1.4176324298
Bq        -3.1882138168    -0.7133871003     1.6877845204
Bq        -3.1867978345    -0.8873179684     1.3275817329
Bq        -3.1885678123    -0.6699043833     1.7778352173
Bq        -3.1864438389    -0.9308006854     1.2375310360
Bq        -3.1889218079    -0.6264216663     1.8678859142
Bq        -3.1860898433    -0.9742834024     1.1474803391
Bq        -3.1892758035    -0.5829389493     1.9579366111
Bq        -3.1857358477    -1.0177661194     1.0574296423
Bq        -3.1875058256    -0.8003525344     1.5076831267
Bq        -3.1876888889    -0.6668184247     1.5542514425
Bq        -3.1869808978    -0.7537838587     1.3741500488
Bq        -3.1880428845    -0.6233357077     1.6443021394
Bq        -3.1866269022    -0.7972665757     1.2840993519
Bq        -3.1883968801    -0.5798529907     1.7343528363
Bq        -3.1862729066    -0.8407492927     1.1940486550
Bq        -3.1887508756    -0.5363702737     1.8244035332
Bq        -3.1859189110    -0.8842320097     1.1039979581
Bq        -3.1891048712    -0.4928875567     1.9144542300
Bq        -3.1855649155    -0.9277147267     1.0139472612
Bq        -3.1873348933    -0.7103011417     1.4642007456
Bq        -3.1875179566    -0.5767670320     1.5107690615
Bq        -3.1868099655    -0.6637324660     1.3306676677
Bq        -3.1878719522    -0.5332843150     1.6008197584
Bq        -3.1864559699    -0.7072151830     1.2406169708
Bq        -3.1882259478    -0.4898015980     1.6908704553
Bq        -3.1861019743    -0.7506979000     1.1505662740
Bq        -3.1885799434    -0.4463188810     1.7809211521
Bq        -3.1857479788    -0.7941806170     1.0605155771
Bq        -3.1889339389    -0.4028361640     1.8709718490
Bq        -3.1853939832    -0.8376633340     0.9704648802
Bq        -3.1871639611    -0.6202497490     1.4207183646
Bq        -3.1873470244    -0.4867156393     1.4672866805
Bq        -3.1866390332    -0.5736810733     1.2871852867
Bq        -3.1877010199    -0.4432329223     1.5573373773
Bq        -3.1862850376    -0.6171637904     1.1971345898
Bq        -3.1880550155    -0.3997502053     1.6473880742
Bq        -3.1859310421    -0.6606465074     1.1070838929
Bq        -3.1884090111    -0.3562674883     1.7374387711
Bq        -3.1855770465    -0.7041292244     1.0170331960
Bq        -3.1887630067    -0.3127847713     1.8274894680
Bq        -3.1852230509    -0.7476119414     0.9269824992
Bq        -3.1869930288    -0.5301983563     1.3772359836
Bq        -3.1871760921    -0.3966642467     1.4238042994
Bq        -3.1864681009    -0.4836296807     1.2437029057
Bq        -3.1875300877    -0.3531815297     1.5138549963
Bq        -3.1861141054    -0.5271123977     1.1536522088
Bq        -3.1878840832    -0.3096988127     1.6039056932
Bq        -3.1857601098    -0.5705951147     1.0636015119
Bq        -3.1882380788    -0.2662160957     1.6939563901
Bq        -3.1854061142    -0.6140778317     0.9735508150
Bq        -3.1885920744    -0.2227333786     1.7840070870
Bq        -3.1850521186    -0.6575605487     0.8835001181
Bq        -3.1868220965    -0.4401469637     1.3337536025
Bq        -3.1870051598    -0.3066128540     1.3803219184
Bq        -3.1862971687    -0.3935782880     1.2002205246
Bq        -3.1873591554    -0.2631301370     1.4703726153
Bq        -3.1859431731    -0.4370610050     1.1101698277
Bq        -3.1877131510    -0.2196474200     1.5604233122
Bq        -3.1855891775    -0.4805437220     1.0201191309
Bq        -3.1880671465    -0.1761647030     1.6504740090
Bq        -3.1852351819    -0.5240264390     0.9300684340
Bq        -3.1884211421    -0.1326819860     1.7405247059

1
2
3
4
5
6
7
8
9
10
11
12
13
14
15
16
17
18
19
20
21
22
23
24
25
26
27
28
29
30
31
32
33
34
35
36
37
38
39
40
41
42
43
44
45
46
47
48
49
50
51
52
53
54
55
56
57
58
59
60
61
62
63
64
65
66
67
68
69
70
71
72
73
74
75
76
77
78
79
80
81
82
83
84
85
86
87
88
89
90
91
92
93
94
95
96
97
98
99
100
101
102
103
104
105
106
107
108
109
110
111
112
113
114
115
116
117
118
119
120
121
122
123
124
125
126
127
128
129
130
131
132
133
134
135
136
137
138
139
140
141
142
143
144
145
146
147
148
149
150
151
152
153
154
155
156
157
158
159
160
161
162
163
164
165
166
167
168
169
170
171
172
173
174
175
176
177
178
179
180
181
182
183
184
185
186
187
188
189
190
191
192
193
194
195
196
197
198
199
200
201
202
203
204
205
206
207
208
209
210
211
212
213
214
215
216
217
218
219
220
221
222
223
224
225
226
227
228
229
230
231
232
233
234
235
236

