%nproc=8
%mem=1000MB
# rb3lyp/6-311+g** NMR geom=connectivity

Title

0 1
C    -4.0500558   -0.5771862    0.8136712
H    -5.0263804   -1.0082727    1.0024760
C    -3.9381552    0.6617804    0.2400876
H    -4.8252424    1.2338890   -0.0111295
C    -2.6768410    1.2433246    0.0057578
C    -1.4974121    0.5051527    0.2848253
C    -1.6508332   -0.7338728    0.9404026
H    -0.7713646   -1.2730967    1.2633753
C    -2.8898548   -1.2624035    1.1994307
H    -2.9683706   -2.2124563    1.7152676
C    -2.5773185    2.5963696   -0.4192930
H    -3.4870728    3.1412239   -0.6474055
C    -1.3741895    3.2147896   -0.4364030
H    -1.2997315    4.2742019   -0.6578144
C    -0.1719488    2.4994090   -0.1734588
C    -0.2043917    1.1018437    0.0192689
C     1.0513491    3.2042560   -0.0676222
H     1.0427344    4.2819499   -0.1896997
C     2.1942091    2.5487446    0.2579577
H     3.1168527    3.0912848    0.4334727
C     2.2216473    1.1336562    0.2934990
C     1.0486931    0.3945528    0.0302412
C     3.4483363    0.4614633    0.5573939
H     4.3095794    1.0606054    0.8334846
C     3.5427346   -0.8855926    0.4749463
H     4.4731467   -1.3939704    0.7038822
C     2.4490052   -1.6474447   -0.0196319
C     1.2150704   -1.0057258   -0.3013573
C     0.2531113   -1.7434440   -1.0216591
H    -0.6541356   -1.2535051   -1.3462847
C     0.4494193   -3.0628597   -1.3413779
H    -0.3083162   -3.5944309   -1.9054060
C     1.6251726   -3.7207967   -0.9552541
H     1.7670048   -4.7687404   -1.1927019
C     2.6109872   -3.0144177   -0.3183050
H     3.5525612   -3.4902813   -0.0646367
Bq         1.7286690900     1.9431038425     0.7640147207
Bq         1.7576209961     1.9332768724     0.5663654916
Bq         1.7141931369     1.9480173276     0.8628393353
Bq         1.7720969491     1.9283633873     0.4675408770
Bq         1.6997171839     1.9529308127     0.9616639499
Bq         1.7865729022     1.9234499022     0.3687162624
Bq         1.6852412308     1.9578442978     1.0604885645
Bq         1.8010488552     1.9185364171     0.2698916478
Bq         1.6707652778     1.9627577829     1.1593131791
Bq         1.8155248082     1.9136229320     0.1710670332
Bq         1.7431450430     1.9381903575     0.6651901061
Bq         1.7293812239     2.0429830579     0.7591531160
Bq         1.7583331300     2.0331560878     0.5615038868
Bq         1.7149052709     2.0478965430     0.8579777305
Bq         1.7728090831     2.0282426027     0.4626792722
Bq         1.7004293178     2.0528100281     0.9568023451
Bq         1.7872850361     2.0233291176     0.3638546576
Bq         1.6859533648     2.0577235132     1.0556269597
Bq         1.8017609891     2.0184156325     0.2650300430
Bq         1.6714774117     2.0626369982     1.1544515743
Bq         1.8162369422     2.0135021474     0.1662054284
Bq         1.7438571770     2.0380695728     0.6603285014
Bq         1.7300933579     2.1428622733     0.7542915112
Bq         1.7590452640     2.1330353031     0.5566422820
Bq         1.7156174048     2.1477757584     0.8531161258
Bq         1.7735212170     2.1281218180     0.4578176674
Bq         1.7011414518     2.1526892435     0.9519407404
Bq         1.7879971700     2.1232083330     0.3589930528
Bq         1.6866654987     2.1576027285     1.0507653549
Bq         1.8024731231     2.1182948479     0.2601684383
Bq         1.6721895457     2.1625162136     1.1495899695
Bq         1.8169490761     2.1133813628     0.1613438237
Bq         1.7445693109     2.1379487882     0.6554668966
Bq         1.7308054918     2.2427414887     0.7494299064
Bq         1.7597573979     2.2329145185     0.5517806773
Bq         1.7163295388     2.2476549738     0.8482545210
Bq         1.7742333509     2.2280010334     0.4529560627
Bq         1.7018535857     2.2525684588     0.9470791356
Bq         1.7887093040     2.2230875483     0.3541314481
Bq         1.6873776327     2.2574819439     1.0459037502
Bq         1.8031852570     2.2181740633     0.2553068335
Bq         1.6729016796     2.2623954290     1.1447283648
Bq         1.8176612101     2.2132605782     0.1564822189
Bq         1.7452814449     2.2378280036     0.6506052918
Bq         1.7315176257     2.3426207040     0.7445683017
Bq         1.7604695318     2.3327937339     0.5469190725
Bq         1.7170416727     2.3475341891     0.8433929162
Bq         1.7749454849     2.3278802488     0.4480944579
Bq         1.7025657197     2.3524476742     0.9422175308
Bq         1.7894214379     2.3229667637     0.3492698433
Bq         1.6880897666     2.3573611593     1.0410421454
Bq         1.8038973910     2.3180532786     0.2504452287
Bq         1.6736138136     2.3622746444     1.1398667600
Bq         1.8183733440     2.3131397936     0.1516206141
Bq         1.7459935788     2.3377072190     0.6457436871
Bq         1.7322297597     2.4424999194     0.7397066969
Bq         1.7611816658     2.4326729493     0.5420574677
Bq         1.7177538066     2.4474134045     0.8385313115
Bq         1.7756576188     2.4277594642     0.4432328531
Bq         1.7032778536     2.4523268896     0.9373559261
Bq         1.7901335719     2.4228459791     0.3444082385
Bq         1.6888019006     2.4572403747     1.0361805406
Bq         1.8046095249     2.4179324940     0.2455836240
Bq         1.6743259475     2.4621538598     1.1350051552
Bq         1.8190854780     2.4130190089     0.1467590094
Bq         1.7467057127     2.4375864343     0.6408820823
Bq         1.7329418936     2.5423791348     0.7348450921
Bq         1.7618937997     2.5325521646     0.5371958630
Bq         1.7184659406     2.5472926199     0.8336697067
Bq         1.7763697528     2.5276386796     0.4383712484
Bq         1.7039899875     2.5522061050     0.9324943213
Bq         1.7908457058     2.5227251945     0.3395466338
Bq         1.6895140345     2.5571195900     1.0313189359
Bq         1.8053216589     2.5178117094     0.2407220192
Bq         1.6750380815     2.5620330751     1.1301435505
Bq         1.8197976119     2.5128982243     0.1418974046
Bq         1.7474178467     2.5374656497     0.6360204775
Bq         1.7336540276     2.6422583502     0.7299834874
Bq         1.7626059337     2.6324313800     0.5323342582
Bq         1.7191780745     2.6471718353     0.8288081019
Bq         1.7770818867     2.6275178949     0.4335096436
Bq         1.7047021215     2.6520853203     0.9276327165
Bq         1.7915578398     2.6226044098     0.3346850290
Bq         1.6902261684     2.6569988054     1.0264573311
Bq         1.8060337928     2.6176909248     0.2358604144
Bq         1.6757502154     2.6619122905     1.1252819457
Bq         1.8205097458     2.6127774397     0.1370357998
Bq         1.7481299806     2.6373448651     0.6311588728
Bq         1.7343661615     2.7421375656     0.7251218826
Bq         1.7633180676     2.7323105954     0.5274726534
Bq         1.7198902085     2.7470510506     0.8239464972
Bq         1.7777940206     2.7273971103     0.4286480388
Bq         1.7054142554     2.7519645357     0.9227711118
Bq         1.7922699737     2.7224836252     0.3298234242
Bq         1.6909383024     2.7568780208     1.0215957263
Bq         1.8067459267     2.7175701401     0.2309988097
Bq         1.6764623493     2.7617915059     1.1204203409
Bq         1.8212218798     2.7126566551     0.1321741951
Bq         1.7488421146     2.7372240805     0.6262972680
Bq         1.7350782955     2.8420167809     0.7202602778
Bq         1.7640302015     2.8321898108     0.5226110487
Bq         1.7206023424     2.8469302660     0.8190848924
Bq         1.7785061546     2.8272763257     0.4237864341
Bq         1.7061263894     2.8518437511     0.9179095070
Bq         1.7929821076     2.8223628406     0.3249618195
Bq         1.6916504363     2.8567572362     1.0167341216
Bq         1.8074580607     2.8174493555     0.2261372049
Bq         1.6771744833     2.8616707213     1.1155587362
Bq         1.8219340137     2.8125358704     0.1273125903
Bq         1.7495542485     2.8371032959     0.6214356632
Bq         1.7357904294     2.9418959963     0.7153986731
Bq         1.7647423355     2.9320690261     0.5177494439
Bq         1.7213144764     2.9468094814     0.8142232876
Bq         1.7792182885     2.9271555411     0.4189248293
Bq         1.7068385233     2.9517229665     0.9130479022
Bq         1.7936942416     2.9222420560     0.3201002147
Bq         1.6923625703     2.9566364516     1.0118725168
Bq         1.8081701946     2.9173285709     0.2212756001
Bq         1.6778866172     2.9615499366     1.1106971314
Bq         1.8226461477     2.9124150858     0.1224509855
Bq         1.7502663824     2.9369825112     0.6165740585
Bq         1.7365025633     3.0417752117     0.7105370683
Bq         1.7654544694     3.0319482415     0.5128878391
Bq         1.7220266103     3.0466886968     0.8093616829
Bq         1.7799304225     3.0270347564     0.4140632245
Bq         1.7075506573     3.0516021819     0.9081862975
Bq         1.7944063755     3.0221212714     0.3152386100
Bq         1.6930747042     3.0565156669     1.0070109120
Bq         1.8088823286     3.0172077863     0.2164139954
Bq         1.6785987512     3.0614291520     1.1058355266
Bq         1.8233582816     3.0122943012     0.1175893808
Bq         1.7509785164     3.0368617266     0.6117124537
Bq         1.7372146973     3.1416544271     0.7056754635
Bq         1.7661666034     3.1318274569     0.5080262344
Bq         1.7227387442     3.1465679121     0.8045000781
Bq         1.7806425564     3.1269139718     0.4092016198
Bq         1.7082627912     3.1514813972     0.9033246927
Bq         1.7951185095     3.1220004867     0.3103770052
Bq         1.6937868381     3.1563948823     1.0021493073
Bq         1.8095944625     3.1170870017     0.2115523906
Bq         1.6793108851     3.1613083674     1.1009739219
Bq         1.8240704155     3.1121735166     0.1127277760
Bq         1.7516906503     3.1367409420     0.6068508489
Bq         1.7379268312     3.2415336424     0.7008138588
Bq         1.7668787373     3.2317066723     0.5031646296
Bq         1.7234508782     3.2464471275     0.7996384733
Bq         1.7813546904     3.2267931872     0.4043400150
Bq         1.7089749251     3.2513606126     0.8984630879
Bq         1.7958306434     3.2218797021     0.3055154004
Bq         1.6944989721     3.2562740977     0.9972877025
Bq         1.8103065964     3.2169662170     0.2066907858
Bq         1.6800230190     3.2611875828     1.0961123171
Bq         1.8247825495     3.2120527319     0.1078661712
Bq         1.7524027843     3.2366201574     0.6019892442
Bq         1.7386389652     3.3414128578     0.6959522540
Bq         1.7675908713     3.3315858877     0.4983030248
Bq         1.7241630121     3.3463263429     0.7947768686
Bq         1.7820668243     3.3266724026     0.3994784102
Bq         1.7096870591     3.3512398280     0.8936014832
Bq         1.7965427773     3.3217589175     0.3006537957
Bq         1.6952111060     3.3561533131     0.9924260977
Bq         1.8110187304     3.3168454324     0.2018291811
Bq         1.6807351530     3.3610667981     1.0912507123
Bq         1.8254946834     3.3119319473     0.1030045665
Bq         1.7531149182     3.3364993727     0.5971276394
Bq         1.7393510991     3.4412920732     0.6910906492
Bq         1.7683030052     3.4314651030     0.4934414201
Bq         1.7248751461     3.4462055583     0.7899152638
Bq         1.7827789582     3.4265516179     0.3946168055
Bq         1.7103991930     3.4511190434     0.8887398784
Bq         1.7972549113     3.4216381329     0.2957921909
Bq         1.6959232400     3.4560325284     0.9875644930
Bq         1.8117308643     3.4167246478     0.1969675763
Bq         1.6814472869     3.4609460135     1.0863891076
Bq         1.8262068174     3.4118111627     0.0981429617
Bq         1.7538270522     3.4363785881     0.5922660346
Bq         1.7400632330     3.5411712886     0.6862290445
Bq         1.7690151391     3.5313443184     0.4885798153
Bq         1.7255872800     3.5460847737     0.7850536590
Bq         1.7834910922     3.5264308333     0.3897552007
Bq         1.7111113270     3.5509982587     0.8838782736
Bq         1.7979670452     3.5215173482     0.2909305861
Bq         1.6966353739     3.5559117438     0.9827028882
Bq         1.8124429983     3.5166038632     0.1921059715
Bq         1.6821594209     3.5608252289     1.0815275028
Bq         1.8269189513     3.5116903781     0.0932813569
Bq         1.7545391861     3.5362578035     0.5874044299
Bq         1.7407753670     3.6410505039     0.6813674397
Bq         1.7697272731     3.6312235338     0.4837182105
Bq         1.7262994139     3.6459639890     0.7801920543
Bq         1.7842032261     3.6263100487     0.3848935959
Bq         1.7118234609     3.6508774741     0.8790166689
Bq         1.7986791792     3.6213965636     0.2860689814
Bq         1.6973475079     3.6557909592     0.9778412834
Bq         1.8131551322     3.6164830785     0.1872443668
Bq         1.6828715548     3.6607044443     1.0766658980
Bq         1.8276310853     3.6115695935     0.0884197522
Bq         1.7552513200     3.6361370189     0.5825428251
Bq         1.7414875009     3.7409297193     0.6765058349
Bq         1.7704394070     3.7311027492     0.4788566058

1
2
3
4
5
6
7
8
9
10
11
12
13
14
15
16
17
18
19
20
21
22
23
24
25
26
27
28
29
30
31
32
33
34
35
36
37
38
39
40
41
42
43
44
45
46
47
48
49
50
51
52
53
54
55
56
57
58
59
60
61
62
63
64
65
66
67
68
69
70
71
72
73
74
75
76
77
78
79
80
81
82
83
84
85
86
87
88
89
90
91
92
93
94
95
96
97
98
99
100
101
102
103
104
105
106
107
108
109
110
111
112
113
114
115
116
117
118
119
120
121
122
123
124
125
126
127
128
129
130
131
132
133
134
135
136
137
138
139
140
141
142
143
144
145
146
147
148
149
150
151
152
153
154
155
156
157
158
159
160
161
162
163
164
165
166
167
168
169
170
171
172
173
174
175
176
177
178
179
180
181
182
183
184
185
186
187
188
189
190
191
192
193
194
195
196
197
198
199
200
201
202
203
204
205
206
207
208
209
210
211
212
213
214
215
216
217
218
219
220
221
222
223
224
225
226
227
228
229
230
231
232
233
234
235
236

