%nproc=8
%mem=1000MB
# rb3lyp/6-311+g** NMR geom=connectivity

Title

0 1
C    -4.0500558   -0.5771862    0.8136712
H    -5.0263804   -1.0082727    1.0024760
C    -3.9381552    0.6617804    0.2400876
H    -4.8252424    1.2338890   -0.0111295
C    -2.6768410    1.2433246    0.0057578
C    -1.4974121    0.5051527    0.2848253
C    -1.6508332   -0.7338728    0.9404026
H    -0.7713646   -1.2730967    1.2633753
C    -2.8898548   -1.2624035    1.1994307
H    -2.9683706   -2.2124563    1.7152676
C    -2.5773185    2.5963696   -0.4192930
H    -3.4870728    3.1412239   -0.6474055
C    -1.3741895    3.2147896   -0.4364030
H    -1.2997315    4.2742019   -0.6578144
C    -0.1719488    2.4994090   -0.1734588
C    -0.2043917    1.1018437    0.0192689
C     1.0513491    3.2042560   -0.0676222
H     1.0427344    4.2819499   -0.1896997
C     2.1942091    2.5487446    0.2579577
H     3.1168527    3.0912848    0.4334727
C     2.2216473    1.1336562    0.2934990
C     1.0486931    0.3945528    0.0302412
C     3.4483363    0.4614633    0.5573939
H     4.3095794    1.0606054    0.8334846
C     3.5427346   -0.8855926    0.4749463
H     4.4731467   -1.3939704    0.7038822
C     2.4490052   -1.6474447   -0.0196319
C     1.2150704   -1.0057258   -0.3013573
C     0.2531113   -1.7434440   -1.0216591
H    -0.6541356   -1.2535051   -1.3462847
C     0.4494193   -3.0628597   -1.3413779
H    -0.3083162   -3.5944309   -1.9054060
C     1.6251726   -3.7207967   -0.9552541
H     1.7670048   -4.7687404   -1.1927019
C     2.6109872   -3.0144177   -0.3183050
H     3.5525612   -3.4902813   -0.0646367
Bq        -0.1083864676    -3.9181387784    -1.3750449977
Bq        -0.2279717589    -3.9979857318    -1.1117508236
Bq        -0.0685247038    -3.8915231273    -1.4628097224
Bq        -0.2678335227    -4.0246013829    -1.0239860989
Bq        -0.0286629400    -3.8649074762    -1.5505744471
Bq        -0.3076952865    -4.0512170340    -0.9362213741
Bq         0.0111988238    -3.8382918251    -1.6383391718
Bq        -0.3475570503    -4.0778326851    -0.8484566494
Bq         0.0510605876    -3.8116761740    -1.7261038966
Bq        -0.1482482314    -3.9447544296    -1.2872802730
Bq        -0.1991164685    -3.8749770979    -1.1752822978
Bq        -0.1193929409    -3.8217457957    -1.3508117472
Bq        -0.2389782323    -3.9015927491    -1.0875175731
Bq        -0.0795311771    -3.7951301446    -1.4385764720
Bq        -0.2788399961    -3.9282084002    -0.9997528484
Bq        -0.0396694134    -3.7685144935    -1.5263411967
Bq        -0.3187017599    -3.9548240513    -0.9119881237
Bq         0.0001923504    -3.7418988424    -1.6141059214
Bq        -0.3585635237    -3.9814397024    -0.8242233990
Bq         0.0400541142    -3.7152831913    -1.7018706461
Bq        -0.1592547047    -3.8483614468    -1.2630470225
Bq        -0.2101229419    -3.7785841152    -1.1510490474
Bq        -0.1303994143    -3.7253528130    -1.3265784968
Bq        -0.2499847057    -3.8051997663    -1.0632843226
Bq        -0.0905376505    -3.6987371619    -1.4143432215
Bq        -0.2898464695    -3.8318154174    -0.9755195979
Bq        -0.0506758867    -3.6721215108    -1.5021079462
Bq        -0.3297082332    -3.8584310686    -0.8877548732
Bq        -0.0108141229    -3.6455058597    -1.5898726709
Bq        -0.3695699970    -3.8850467197    -0.7999901485
Bq         0.0290476408    -3.6188902086    -1.6776373956
Bq        -0.1702611781    -3.7519684641    -1.2388137721
Bq        -0.2211294153    -3.6821911325    -1.1268157969
Bq        -0.1414058877    -3.6289598303    -1.3023452463
Bq        -0.2609911790    -3.7088067836    -1.0390510722
Bq        -0.1015441239    -3.6023441792    -1.3901099710
Bq        -0.3008529428    -3.7354224347    -0.9512863475
Bq        -0.0616823601    -3.5757285281    -1.4778746958
Bq        -0.3407147066    -3.7620380858    -0.8635216228
Bq        -0.0218205963    -3.5491128770    -1.5656394205
Bq        -0.3805764704    -3.7886537369    -0.7757568981
Bq         0.0180411675    -3.5224972259    -1.6534041452
Bq        -0.1812676515    -3.6555754814    -1.2145805216
Bq        -0.2321358886    -3.5857981498    -1.1025825464
Bq        -0.1524123611    -3.5325668476    -1.2781119959
Bq        -0.2719976524    -3.6124138009    -1.0148178217
Bq        -0.1125505973    -3.5059511965    -1.3658767206
Bq        -0.3118594162    -3.6390294520    -0.9270530970
Bq        -0.0726888335    -3.4793355454    -1.4536414453
Bq        -0.3517211800    -3.6656451031    -0.8392883723
Bq        -0.0328270697    -3.4527198943    -1.5414061700
Bq        -0.3915829438    -3.6922607542    -0.7515236476
Bq         0.0070346941    -3.4261042432    -1.6291708947
Bq        -0.1922741248    -3.5591824987    -1.1903472712
Bq        -0.2431423620    -3.4894051671    -1.0783492960
Bq        -0.1634188344    -3.4361738649    -1.2538787454
Bq        -0.2830041258    -3.5160208182    -0.9905845713
Bq        -0.1235570706    -3.4095582138    -1.3416434701
Bq        -0.3228658896    -3.5426364693    -0.9028198466
Bq        -0.0836953069    -3.3829425627    -1.4294081948
Bq        -0.3627276534    -3.5692521204    -0.8150551218
Bq        -0.0438335431    -3.3563269116    -1.5171729195
Bq        -0.4025894172    -3.5958677715    -0.7272903971
Bq        -0.0039717793    -3.3297112605    -1.6049376443
Bq        -0.2032805982    -3.4627895160    -1.1661140207
Bq        -0.2541488354    -3.3930121844    -1.0541160455
Bq        -0.1744253078    -3.3397808822    -1.2296454950
Bq        -0.2940105992    -3.4196278355    -0.9663513208
Bq        -0.1345635440    -3.3131652311    -1.3174102197
Bq        -0.3338723629    -3.4462434866    -0.8785865961
Bq        -0.0947017802    -3.2865495800    -1.4051749444
Bq        -0.3737341267    -3.4728591377    -0.7908218714
Bq        -0.0548400164    -3.2599339288    -1.4929396691
Bq        -0.4135958905    -3.4994747888    -0.7030571467
Bq        -0.0149782526    -3.2333182777    -1.5807043938
Bq        -0.2142870716    -3.3663965333    -1.1418807702
Bq        -0.2651553087    -3.2966192017    -1.0298827951
Bq        -0.1854317812    -3.2433878995    -1.2054122445
Bq        -0.3050170725    -3.3232348528    -0.9421180704
Bq        -0.1455700174    -3.2167722484    -1.2931769692
Bq        -0.3448788363    -3.3498505039    -0.8543533456
Bq        -0.1057082536    -3.1901565972    -1.3809416939
Bq        -0.3847406001    -3.3764661550    -0.7665886209
Bq        -0.0658464898    -3.1635409461    -1.4687064186
Bq        -0.4246023639    -3.4030818061    -0.6788238962
Bq        -0.0259847260    -3.1369252950    -1.5564711433
Bq        -0.2252935450    -3.2700035506    -1.1176475198
Bq        -0.2761617821    -3.2002262190    -1.0056495446
Bq        -0.1964382545    -3.1469949167    -1.1811789940
Bq        -0.3160235459    -3.2268418701    -0.9178848199
Bq        -0.1565764908    -3.1203792656    -1.2689437187
Bq        -0.3558853097    -3.2534575212    -0.8301200952
Bq        -0.1167147270    -3.0937636145    -1.3567084435
Bq        -0.3957470735    -3.2800731723    -0.7423553705
Bq        -0.0768529632    -3.0671479634    -1.4444731682
Bq        -0.4356088373    -3.3066888234    -0.6545906458
Bq        -0.0369911994    -3.0405323123    -1.5322378929
Bq        -0.2363000183    -3.1736105679    -1.0934142693
Bq        -0.2871682555    -3.1038332362    -0.9814162942
Bq        -0.2074447279    -3.0506019340    -1.1569457436
Bq        -0.3270300193    -3.1304488874    -0.8936515694
Bq        -0.1675829641    -3.0239862829    -1.2447104683
Bq        -0.3668917831    -3.1570645385    -0.8058868447
Bq        -0.1277212003    -2.9973706318    -1.3324751930
Bq        -0.4067535469    -3.1836801896    -0.7181221200
Bq        -0.0878594366    -2.9707549807    -1.4202399177
Bq        -0.4466153106    -3.2102958407    -0.6303573953
Bq        -0.0479976728    -2.9441393296    -1.5080046424
Bq        -0.2473064917    -3.0772175851    -1.0691810189
Bq        -0.2981747289    -3.0074402535    -0.9571830437
Bq        -0.2184512013    -2.9542089513    -1.1327124931
Bq        -0.3380364926    -3.0340559046    -0.8694183190
Bq        -0.1785894375    -2.9275933002    -1.2204772178
Bq        -0.3778982564    -3.0606715558    -0.7816535943
Bq        -0.1387276737    -2.9009776491    -1.3082419425
Bq        -0.4177600202    -3.0872872069    -0.6938888696
Bq        -0.0988659099    -2.8743619980    -1.3960066673
Bq        -0.4576217840    -3.1139028580    -0.6061241448
Bq        -0.0590041461    -2.8477463469    -1.4837713920
Bq        -0.2583129651    -2.9808246024    -1.0449477684
Bq        -0.3091812022    -2.9110472708    -0.9329497932
Bq        -0.2294576747    -2.8578159686    -1.1084792427
Bq        -0.3490429660    -2.9376629219    -0.8451850685
Bq        -0.1895959109    -2.8312003175    -1.1962439674
Bq        -0.3889047298    -2.9642785730    -0.7574203438
Bq        -0.1497341471    -2.8045846664    -1.2840086921
Bq        -0.4287664936    -2.9908942241    -0.6696556191
Bq        -0.1098723833    -2.7779690153    -1.3717734168
Bq        -0.4686282574    -3.0175098753    -0.5818908944
Bq        -0.0700106195    -2.7513533642    -1.4595381415
Bq        -0.2693194384    -2.8844316197    -1.0207145180
Bq        -0.3201876756    -2.8146542881    -0.9087165428
Bq        -0.2404641480    -2.7614229859    -1.0842459922
Bq        -0.3600494394    -2.8412699392    -0.8209518181
Bq        -0.2006023842    -2.7348073348    -1.1720107169
Bq        -0.3999112032    -2.8678855903    -0.7331870934
Bq        -0.1607406205    -2.7081916837    -1.2597754416
Bq        -0.4397729670    -2.8945012414    -0.6454223686
Bq        -0.1208788567    -2.6815760326    -1.3475401663
Bq        -0.4796347308    -2.9211168925    -0.5576576439
Bq        -0.0810170929    -2.6549603815    -1.4353048911
Bq        -0.2803259118    -2.7880386370    -0.9964812675
Bq        -0.3311941490    -2.7182613054    -0.8844832923
Bq        -0.2514706214    -2.6650300032    -1.0600127417
Bq        -0.3710559128    -2.7448769565    -0.7967185676
Bq        -0.2116088576    -2.6384143521    -1.1477774665
Bq        -0.4109176766    -2.7714926076    -0.7089538429
Bq        -0.1717470938    -2.6117987010    -1.2355421912
Bq        -0.4507794403    -2.7981082587    -0.6211891182
Bq        -0.1318853300    -2.5851830499    -1.3233069159
Bq        -0.4906412041    -2.8247239098    -0.5334243935
Bq        -0.0920235663    -2.5585673988    -1.4110716406
Bq        -0.2913323852    -2.6916456543    -0.9722480170
Bq        -0.3422006223    -2.6218683227    -0.8602500419
Bq        -0.2624770948    -2.5686370205    -1.0357794913
Bq        -0.3820623861    -2.6484839738    -0.7724853172
Bq        -0.2226153310    -2.5420213694    -1.1235442160
Bq        -0.4219241499    -2.6750996249    -0.6847205924
Bq        -0.1827535672    -2.5154057183    -1.2113089407
Bq        -0.4617859137    -2.7017152760    -0.5969558677
Bq        -0.1428918034    -2.4887900672    -1.2990736654
Bq        -0.5016476775    -2.7283309271    -0.5091911430
Bq        -0.1030300396    -2.4621744160    -1.3868383901
Bq        -0.3023388586    -2.5952526716    -0.9480147666
Bq        -0.3532070957    -2.5254753400    -0.8360167914
Bq        -0.2734835681    -2.4722440378    -1.0115462408
Bq        -0.3930688595    -2.5520909911    -0.7482520667
Bq        -0.2336218044    -2.4456283867    -1.0993109655
Bq        -0.4329306233    -2.5787066422    -0.6604873420
Bq        -0.1937600406    -2.4190127355    -1.1870756903
Bq        -0.4727923871    -2.6053222933    -0.5727226173
Bq        -0.1538982768    -2.3923970844    -1.2748404150
Bq        -0.5126541509    -2.6319379444    -0.4849578926
Bq        -0.1140365130    -2.3657814333    -1.3626051397
Bq        -0.3133453319    -2.4988596889    -0.9237815161
Bq        -0.3642135691    -2.4290823573    -0.8117835409
Bq        -0.2844900415    -2.3758510550    -0.9873129904
Bq        -0.4040753329    -2.4556980084    -0.7240188162
Bq        -0.2446282777    -2.3492354039    -1.0750777151
Bq        -0.4439370967    -2.4823136595    -0.6362540915
Bq        -0.2047665139    -2.3226197528    -1.1628424398
Bq        -0.4837988605    -2.5089293106    -0.5484893668
Bq        -0.1649047502    -2.2960041017    -1.2506071645
Bq        -0.5236606242    -2.5355449617    -0.4607246421
Bq        -0.1250429864    -2.2693884506    -1.3383718892
Bq        -0.3243518053    -2.4024667062    -0.8995482657
Bq        -0.3752200425    -2.3326893746    -0.7875502905
Bq        -0.2954965149    -2.2794580723    -0.9630797399
Bq        -0.4150818063    -2.3593050257    -0.6997855658
Bq        -0.2556347511    -2.2528424212    -1.0508444646
Bq        -0.4549435700    -2.3859206768    -0.6120208411
Bq        -0.2157729873    -2.2262267701    -1.1386091893
Bq        -0.4948053338    -2.4125363279    -0.5242561164
Bq        -0.1759112235    -2.1996111190    -1.2263739141
Bq        -0.5346670976    -2.4391519790    -0.4364913916
Bq        -0.1360494597    -2.1729954679    -1.3141386388
Bq        -0.3353582787    -2.3060737234    -0.8753150152
Bq        -0.3862265158    -2.2362963918    -0.7633170400
Bq        -0.3065029883    -2.1830650896    -0.9388464895
Bq        -0.4260882796    -2.2629120429    -0.6755523153

1
2
3
4
5
6
7
8
9
10
11
12
13
14
15
16
17
18
19
20
21
22
23
24
25
26
27
28
29
30
31
32
33
34
35
36
37
38
39
40
41
42
43
44
45
46
47
48
49
50
51
52
53
54
55
56
57
58
59
60
61
62
63
64
65
66
67
68
69
70
71
72
73
74
75
76
77
78
79
80
81
82
83
84
85
86
87
88
89
90
91
92
93
94
95
96
97
98
99
100
101
102
103
104
105
106
107
108
109
110
111
112
113
114
115
116
117
118
119
120
121
122
123
124
125
126
127
128
129
130
131
132
133
134
135
136
137
138
139
140
141
142
143
144
145
146
147
148
149
150
151
152
153
154
155
156
157
158
159
160
161
162
163
164
165
166
167
168
169
170
171
172
173
174
175
176
177
178
179
180
181
182
183
184
185
186
187
188
189
190
191
192
193
194
195
196
197
198
199
200
201
202
203
204
205
206
207
208
209
210
211
212
213
214
215
216
217
218
219
220
221
222
223
224
225
226
227
228
229
230
231
232
233
234
235
236

