%nproc=8
%mem=1000MB
# rb3lyp/6-311+g** NMR geom=connectivity

Title

0 1
C    -4.0500558   -0.5771862    0.8136712
H    -5.0263804   -1.0082727    1.0024760
C    -3.9381552    0.6617804    0.2400876
H    -4.8252424    1.2338890   -0.0111295
C    -2.6768410    1.2433246    0.0057578
C    -1.4974121    0.5051527    0.2848253
C    -1.6508332   -0.7338728    0.9404026
H    -0.7713646   -1.2730967    1.2633753
C    -2.8898548   -1.2624035    1.1994307
H    -2.9683706   -2.2124563    1.7152676
C    -2.5773185    2.5963696   -0.4192930
H    -3.4870728    3.1412239   -0.6474055
C    -1.3741895    3.2147896   -0.4364030
H    -1.2997315    4.2742019   -0.6578144
C    -0.1719488    2.4994090   -0.1734588
C    -0.2043917    1.1018437    0.0192689
C     1.0513491    3.2042560   -0.0676222
H     1.0427344    4.2819499   -0.1896997
C     2.1942091    2.5487446    0.2579577
H     3.1168527    3.0912848    0.4334727
C     2.2216473    1.1336562    0.2934990
C     1.0486931    0.3945528    0.0302412
C     3.4483363    0.4614633    0.5573939
H     4.3095794    1.0606054    0.8334846
C     3.5427346   -0.8855926    0.4749463
H     4.4731467   -1.3939704    0.7038822
C     2.4490052   -1.6474447   -0.0196319
C     1.2150704   -1.0057258   -0.3013573
C     0.2531113   -1.7434440   -1.0216591
H    -0.6541356   -1.2535051   -1.3462847
C     0.4494193   -3.0628597   -1.3413779
H    -0.3083162   -3.5944309   -1.9054060
C     1.6251726   -3.7207967   -0.9552541
H     1.7670048   -4.7687404   -1.1927019
C     2.6109872   -3.0144177   -0.3183050
H     3.5525612   -3.4902813   -0.0646367
Bq         1.4496026811    -2.7880386370    -0.2107669026
Bq         1.3987344440    -2.7182613054    -0.0987689274
Bq         1.4784579716    -2.6650300032    -0.2742983768
Bq         1.3588726802    -2.7448769565    -0.0110042027
Bq         1.5183197353    -2.6384143521    -0.3620631015
Bq         1.3190109164    -2.7714926076     0.0767605220
Bq         1.5581814991    -2.6117987010    -0.4498278262
Bq         1.2791491526    -2.7981082587     0.1645252468
Bq         1.5980432629    -2.5851830499    -0.5375925509
Bq         1.2392873888    -2.8247239098     0.2522899715
Bq         1.6379050267    -2.5585673988    -0.6253572757
Bq         1.4385962078    -2.6916456543    -0.1865336521
Bq         1.3877279706    -2.6218683227    -0.0745356769
Bq         1.4674514982    -2.5686370205    -0.2500651264
Bq         1.3478662068    -2.6484839738     0.0132290478
Bq         1.5073132620    -2.5420213694    -0.3378298511
Bq         1.3080044430    -2.6750996249     0.1009937725
Bq         1.5471750258    -2.5154057183    -0.4255945758
Bq         1.2681426792    -2.7017152760     0.1887584972
Bq         1.5870367895    -2.4887900672    -0.5133593005
Bq         1.2282809155    -2.7283309271     0.2765232219
Bq         1.6268985533    -2.4621744160    -0.6011240252
Bq         1.4275897344    -2.5952526716    -0.1623004016
Bq         1.3767214972    -2.5254753400    -0.0503024265
Bq         1.4564450248    -2.4722440378    -0.2258318759
Bq         1.3368597334    -2.5520909911     0.0374622982
Bq         1.4963067886    -2.4456283867    -0.3135966006
Bq         1.2969979697    -2.5787066422     0.1252270230
Bq         1.5361685524    -2.4190127355    -0.4013613253
Bq         1.2571362059    -2.6053222933     0.2129917477
Bq         1.5760303162    -2.3923970844    -0.4891260500
Bq         1.2172744421    -2.6319379444     0.3007564724
Bq         1.6158920800    -2.3657814333    -0.5768907747
Bq         1.4165832610    -2.4988596889    -0.1380671512
Bq         1.3657150239    -2.4290823573    -0.0260691760
Bq         1.4454385514    -2.3758510550    -0.2015986254
Bq         1.3258532601    -2.4556980084     0.0616955487
Bq         1.4853003152    -2.3492354039    -0.2893633501
Bq         1.2859914963    -2.4823136595     0.1494602734
Bq         1.5251620790    -2.3226197528    -0.3771280749
Bq         1.2461297325    -2.5089293106     0.2372249981
Bq         1.5650238428    -2.2960041017    -0.4648927996
Bq         1.2062679687    -2.5355449617     0.3249897228
Bq         1.6048856066    -2.2693884506    -0.5526575243
Bq         1.4055767877    -2.4024667062    -0.1138339007
Bq         1.3547085505    -2.3326893746    -0.0018359256
Bq         1.4344320781    -2.2794580723    -0.1773653750
Bq         1.3148467867    -2.3593050257     0.0859287992
Bq         1.4742938419    -2.2528424212    -0.2651300997
Bq         1.2749850229    -2.3859206768     0.1736935239
Bq         1.5141556056    -2.2262267701    -0.3528948244
Bq         1.2351232591    -2.4125363279     0.2614582486
Bq         1.5540173694    -2.1996111190    -0.4406595491
Bq         1.1952614953    -2.4391519790     0.3492229733
Bq         1.5938791332    -2.1729954679    -0.5284242738
Bq         1.3945703143    -2.3060737234    -0.0896006503
Bq         1.3437020771    -2.2362963918     0.0223973249
Bq         1.4234256047    -2.1830650896    -0.1531321245
Bq         1.3038403133    -2.2629120429     0.1101620496
Bq         1.4632873685    -2.1564494385    -0.2408968492
Bq         1.2639785495    -2.2895276941     0.1979267743
Bq         1.5031491323    -2.1298337874    -0.3286615739
Bq         1.2241167858    -2.3161433452     0.2856914990
Bq         1.5430108961    -2.1032181363    -0.4164262987
Bq         1.1842550220    -2.3427589963     0.3734562238
Bq         1.5828726598    -2.0766024852    -0.5041910234
Bq         1.3835638409    -2.2096807407    -0.0653673998
Bq         1.3326956037    -2.1399034091     0.0466305754
Bq         1.4124191313    -2.0866721069    -0.1288988741
Bq         1.2928338400    -2.1665190602     0.1343953001
Bq         1.4522808951    -2.0600564558    -0.2166635988
Bq         1.2529720762    -2.1931347113     0.2221600248
Bq         1.4921426589    -2.0334408047    -0.3044283235
Bq         1.2131103124    -2.2197503624     0.3099247495
Bq         1.5320044227    -2.0068251536    -0.3921930482
Bq         1.1732485486    -2.2463660136     0.3976894742
Bq         1.5718661865    -1.9802095025    -0.4799577729
Bq         1.3725573675    -2.1132877580    -0.0411341493
Bq         1.3216891304    -2.0435104264     0.0708638258
Bq         1.4014126579    -1.9902791242    -0.1046656236
Bq         1.2818273666    -2.0701260775     0.1586285505
Bq         1.4412744217    -1.9636634731    -0.1924303483
Bq         1.2419656028    -2.0967417286     0.2463932752
Bq         1.4811361855    -1.9370478220    -0.2801950730
Bq         1.2021038390    -2.1233573797     0.3341580000
Bq         1.5209979493    -1.9104321709    -0.3679597977
Bq         1.1622420752    -2.1499730308     0.4219227247
Bq         1.5608597131    -1.8838165198    -0.4557245225
Bq         1.3615508942    -2.0168947753    -0.0169008989
Bq         1.3106826570    -1.9471174437     0.0950970763
Bq         1.3904061846    -1.8938861415    -0.0804323731
Bq         1.2708208932    -1.9737330948     0.1828618010
Bq         1.4302679484    -1.8672704904    -0.1681970979
Bq         1.2309591294    -2.0003487459     0.2706265257
Bq         1.4701297122    -1.8406548393    -0.2559618226
Bq         1.1910973656    -2.0269643970     0.3583912504
Bq         1.5099914759    -1.8140391882    -0.3437265473
Bq         1.1512356019    -2.0535800481     0.4461559751
Bq         1.5498532397    -1.7874235371    -0.4314912720
Bq         1.3505444208    -1.9205017926     0.0073323516
Bq         1.2996761836    -1.8507244610     0.1193303267
Bq         1.3793997112    -1.7974931588    -0.0561991227
Bq         1.2598144198    -1.8773401121     0.2070950515
Bq         1.4192614750    -1.7708775077    -0.1439638474
Bq         1.2199526561    -1.9039557632     0.2948597762
Bq         1.4591232388    -1.7442618566    -0.2317285721
Bq         1.1800908923    -1.9305714143     0.3826245009
Bq         1.4989850026    -1.7176462055    -0.3194932968
Bq         1.1402291285    -1.9571870654     0.4703892256
Bq         1.5388467664    -1.6910305543    -0.4072580215
Bq         1.3395379474    -1.8241088099     0.0315656020
Bq         1.2886697103    -1.7543314783     0.1435635772
Bq         1.3683932378    -1.7011001761    -0.0319658722
Bq         1.2488079465    -1.7809471294     0.2313283019
Bq         1.4082550016    -1.6744845250    -0.1197305969
Bq         1.2089461827    -1.8075627805     0.3190930266
Bq         1.4481167654    -1.6478688739    -0.2074953217
Bq         1.1690844189    -1.8341784316     0.4068577513
Bq         1.4879785292    -1.6212532227    -0.2952600464
Bq         1.1292226551    -1.8607940827     0.4946224760
Bq         1.5278402930    -1.5946375716    -0.3830247711
Bq         1.3285314740    -1.7277158272     0.0557988525
Bq         1.2776632369    -1.6579384956     0.1677968277
Bq         1.3573867645    -1.6047071934    -0.0077326218
Bq         1.2378014731    -1.6845541467     0.2555615524
Bq         1.3972485282    -1.5780915422    -0.0954973465
Bq         1.1979397093    -1.7111697978     0.3433262771
Bq         1.4371102920    -1.5514758911    -0.1832620712
Bq         1.1580779455    -1.7377854489     0.4310910018
Bq         1.4769720558    -1.5248602400    -0.2710267959
Bq         1.1182161817    -1.7644011000     0.5188557265
Bq         1.5168338196    -1.4982445889    -0.3587915206
Bq         1.3175250007    -1.6313228445     0.0800321029
Bq         1.2666567635    -1.5615455129     0.1920300781
Bq         1.3463802911    -1.5083142106     0.0165006287
Bq         1.2267949997    -1.5881611640     0.2797948028
Bq         1.3862420549    -1.4816985595    -0.0712640960
Bq         1.1869332359    -1.6147768151     0.3675595275
Bq         1.4261038187    -1.4550829084    -0.1590288207
Bq         1.1470714722    -1.6413924662     0.4553242523
Bq         1.4659655825    -1.4284672573    -0.2467935455
Bq         1.1072097084    -1.6680081173     0.5430889770
Bq         1.5058273462    -1.4018516062    -0.3345582702
Bq         1.3065185273    -1.5349298617     0.1042653534
Bq         1.2556502901    -1.4651525301     0.2162633286
Bq         1.3353738177    -1.4119212279     0.0407338791
Bq         1.2157885264    -1.4917681812     0.3040280533
Bq         1.3752355815    -1.3853055768    -0.0470308456
Bq         1.1759267626    -1.5183838324     0.3917927780
Bq         1.4150973453    -1.3586899257    -0.1347955703
Bq         1.1360649988    -1.5449994835     0.4795575027
Bq         1.4549591091    -1.3320742746    -0.2225602950
Bq         1.0962032350    -1.5716151346     0.5673222274
Bq         1.4948208729    -1.3054586235    -0.3103250197
Bq         1.2955120539    -1.4385368790     0.1284986039
Bq         1.2446438168    -1.3687595474     0.2404965790
Bq         1.3243673443    -1.3155282452     0.0649671296
Bq         1.2047820530    -1.3953751985     0.3282613037
Bq         1.3642291081    -1.2889125941    -0.0227975951
Bq         1.1649202892    -1.4219908496     0.4160260285
Bq         1.4040908719    -1.2622969430    -0.1105623198
Bq         1.1250585254    -1.4486065008     0.5037907532
Bq         1.4439526357    -1.2356812919    -0.1983270445
Bq         1.0851967616    -1.4752221519     0.5915554779
Bq         1.4838143995    -1.2090656408    -0.2860917692
Bq         1.2845055806    -1.3421438963     0.1527318543
Bq         1.2336373434    -1.2723665647     0.2647298295
Bq         1.3133608710    -1.2191352625     0.0892003801
Bq         1.1937755796    -1.2989822158     0.3524945542
Bq         1.3532226348    -1.1925196114     0.0014356553
Bq         1.1539138158    -1.3255978669     0.4402592789
Bq         1.3930843985    -1.1659039603    -0.0863290694
Bq         1.1140520520    -1.3522135180     0.5280240036
Bq         1.4329461623    -1.1392883092    -0.1740937941
Bq         1.0741902882    -1.3788291691     0.6157887283
Bq         1.4728079261    -1.1126726581    -0.2618585188
Bq         1.2734991072    -1.2457509136     0.1769651048
Bq         1.2226308700    -1.1759735820     0.2889630799
Bq         1.3023543976    -1.1227422798     0.1134336305
Bq         1.1827691062    -1.2025892331     0.3767278047
Bq         1.3422161614    -1.0961266287     0.0256689058
Bq         1.1429073425    -1.2292048842     0.4644925294
Bq         1.3820779252    -1.0695109776    -0.0620958189
Bq         1.1030455787    -1.2558205353     0.5522572541
Bq         1.4219396890    -1.0428953265    -0.1498605436
Bq         1.0631838149    -1.2824361864     0.6400219788
Bq         1.4618014528    -1.0162796754    -0.2376252683
Bq         1.2624926338    -1.1493579309     0.2011983552
Bq         1.2116243967    -1.0795805993     0.3131963304
Bq         1.2913479242    -1.0263492971     0.1376668810
Bq         1.1717626329    -1.1061962504     0.4009610551
Bq         1.3312096880    -0.9997336460     0.0499021563
Bq         1.1319008691    -1.1328119015     0.4887257798
Bq         1.3710714518    -0.9731179949    -0.0378625684
Bq         1.0920391053    -1.1594275526     0.5764905045
Bq         1.4109332156    -0.9465023438    -0.1256272932
Bq         1.0521773415    -1.1860432037     0.6642552293
Bq         1.4507949794    -0.9198866927    -0.2133920179
Bq         1.2514861604    -1.0529649482     0.2254316057
Bq         1.2006179233    -0.9831876166     0.3374295809

1
2
3
4
5
6
7
8
9
10
11
12
13
14
15
16
17
18
19
20
21
22
23
24
25
26
27
28
29
30
31
32
33
34
35
36
37
38
39
40
41
42
43
44
45
46
47
48
49
50
51
52
53
54
55
56
57
58
59
60
61
62
63
64
65
66
67
68
69
70
71
72
73
74
75
76
77
78
79
80
81
82
83
84
85
86
87
88
89
90
91
92
93
94
95
96
97
98
99
100
101
102
103
104
105
106
107
108
109
110
111
112
113
114
115
116
117
118
119
120
121
122
123
124
125
126
127
128
129
130
131
132
133
134
135
136
137
138
139
140
141
142
143
144
145
146
147
148
149
150
151
152
153
154
155
156
157
158
159
160
161
162
163
164
165
166
167
168
169
170
171
172
173
174
175
176
177
178
179
180
181
182
183
184
185
186
187
188
189
190
191
192
193
194
195
196
197
198
199
200
201
202
203
204
205
206
207
208
209
210
211
212
213
214
215
216
217
218
219
220
221
222
223
224
225
226
227
228
229
230
231
232
233
234
235
236

