%nproc=8
%mem=1000MB
# rb3lyp/6-311+g** NMR geom=connectivity

Title

0 1
C    -4.0500558   -0.5771862    0.8136712
H    -5.0263804   -1.0082727    1.0024760
C    -3.9381552    0.6617804    0.2400876
H    -4.8252424    1.2338890   -0.0111295
C    -2.6768410    1.2433246    0.0057578
C    -1.4974121    0.5051527    0.2848253
C    -1.6508332   -0.7338728    0.9404026
H    -0.7713646   -1.2730967    1.2633753
C    -2.8898548   -1.2624035    1.1994307
H    -2.9683706   -2.2124563    1.7152676
C    -2.5773185    2.5963696   -0.4192930
H    -3.4870728    3.1412239   -0.6474055
C    -1.3741895    3.2147896   -0.4364030
H    -1.2997315    4.2742019   -0.6578144
C    -0.1719488    2.4994090   -0.1734588
C    -0.2043917    1.1018437    0.0192689
C     1.0513491    3.2042560   -0.0676222
H     1.0427344    4.2819499   -0.1896997
C     2.1942091    2.5487446    0.2579577
H     3.1168527    3.0912848    0.4334727
C     2.2216473    1.1336562    0.2934990
C     1.0486931    0.3945528    0.0302412
C     3.4483363    0.4614633    0.5573939
H     4.3095794    1.0606054    0.8334846
C     3.5427346   -0.8855926    0.4749463
H     4.4731467   -1.3939704    0.7038822
C     2.4490052   -1.6474447   -0.0196319
C     1.2150704   -1.0057258   -0.3013573
C     0.2531113   -1.7434440   -1.0216591
H    -0.6541356   -1.2535051   -1.3462847
C     0.4494193   -3.0628597   -1.3413779
H    -0.3083162   -3.5944309   -1.9054060
C     1.6251726   -3.7207967   -0.9552541
H     1.7670048   -4.7687404   -1.1927019
C     2.6109872   -3.0144177   -0.3183050
H     3.5525612   -3.4902813   -0.0646367
Bq        -1.0904642931    -1.6604697027     2.2643965915
Bq        -1.0883403197    -1.9213660047     1.7240924102
Bq        -1.0908182887    -1.6169869857     2.3544472883
Bq        -1.0879863241    -1.9648487217     1.6340417133
Bq        -1.0911722843    -1.5735042687     2.4444979852
Bq        -1.0876323285    -2.0083314388     1.5439910164
Bq        -1.0894023064    -1.7909178537     1.9942445008
Bq        -1.0895853697    -1.6573837441     2.0408128167
Bq        -1.0888773786    -1.7443491781     1.8607114229
Bq        -1.0899393653    -1.6139010270     2.1308635135
Bq        -1.0885233830    -1.7878318951     1.7706607260
Bq        -1.0902933609    -1.5704183100     2.2209142104
Bq        -1.0881693874    -1.8313146121     1.6806100291
Bq        -1.0906473564    -1.5269355930     2.3109649073
Bq        -1.0878153918    -1.8747973291     1.5905593322
Bq        -1.0910013520    -1.4834528760     2.4010156042
Bq        -1.0874613963    -1.9182800461     1.5005086354
Bq        -1.0892313741    -1.7008664611     1.9507621198
Bq        -1.0894144374    -1.5673323514     1.9973304356
Bq        -1.0887064463    -1.6542977854     1.8172290419
Bq        -1.0897684330    -1.5238496344     2.0873811325
Bq        -1.0883524507    -1.6977805024     1.7271783450
Bq        -1.0901224286    -1.4803669174     2.1774318294
Bq        -1.0879984551    -1.7412632194     1.6371276481
Bq        -1.0904764242    -1.4368842004     2.2674825263
Bq        -1.0876444596    -1.7847459364     1.5470769512
Bq        -1.0908304197    -1.3934014834     2.3575332232
Bq        -1.0872904640    -1.8282286534     1.4570262543
Bq        -1.0890604419    -1.6108150684     1.9072797387
Bq        -1.0892435052    -1.4772809587     1.9538480546
Bq        -1.0885355140    -1.5642463927     1.7737466608
Bq        -1.0895975007    -1.4337982417     2.0438987515
Bq        -1.0881815184    -1.6077291097     1.6836959639
Bq        -1.0899514963    -1.3903155247     2.1339494484
Bq        -1.0878275229    -1.6512118267     1.5936452671
Bq        -1.0903054919    -1.3468328077     2.2240001452
Bq        -1.0874735273    -1.6946945437     1.5035945702
Bq        -1.0906594875    -1.3033500907     2.3140508421
Bq        -1.0871195317    -1.7381772607     1.4135438733
Bq        -1.0888895096    -1.5207636757     1.8637973577
Bq        -1.0890725729    -1.3872295660     1.9103656736
Bq        -1.0883645817    -1.4741950001     1.7302642798
Bq        -1.0894265685    -1.3437468490     2.0004163704
Bq        -1.0880105862    -1.5176777171     1.6402135829
Bq        -1.0897805640    -1.3002641320     2.0904670673
Bq        -1.0876565906    -1.5611604341     1.5501628860
Bq        -1.0901345596    -1.2567814150     2.1805177642
Bq        -1.0873025950    -1.6046431511     1.4601121892
Bq        -1.0904885552    -1.2132986980     2.2705684611
Bq        -1.0869485994    -1.6481258681     1.3700614923
Bq        -1.0887185773    -1.4307122830     1.8203149767
Bq        -1.0889016406    -1.2971781734     1.8668832925
Bq        -1.0881936495    -1.3841436074     1.6867818988
Bq        -1.0892556362    -1.2536954564     1.9569339894
Bq        -1.0878396539    -1.4276263244     1.5967312019
Bq        -1.0896096318    -1.2102127394     2.0469846863
Bq        -1.0874856583    -1.4711090414     1.5066805050
Bq        -1.0899636273    -1.1667300224     2.1370353832
Bq        -1.0871316627    -1.5145917584     1.4166298081
Bq        -1.0903176229    -1.1232473054     2.2270860801
Bq        -1.0867776672    -1.5580744754     1.3265791112
Bq        -1.0885476450    -1.3406608904     1.7768325956
Bq        -1.0887307083    -1.2071267807     1.8234009115
Bq        -1.0880227172    -1.2940922147     1.6432995177
Bq        -1.0890847039    -1.1636440637     1.9134516084
Bq        -1.0876687216    -1.3375749317     1.5532488209
Bq        -1.0894386995    -1.1201613467     2.0035023053
Bq        -1.0873147260    -1.3810576487     1.4631981240
Bq        -1.0897926951    -1.0766786297     2.0935530021
Bq        -1.0869607305    -1.4245403657     1.3731474271
Bq        -1.0901466906    -1.0331959127     2.1836036990
Bq        -1.0866067349    -1.4680230827     1.2830967302
Bq        -1.0883767128    -1.2506094977     1.7333502146
Bq        -1.0885597761    -1.1170753880     1.7799185305
Bq        -1.0878517849    -1.2040408220     1.5998171367
Bq        -1.0889137716    -1.0735926710     1.8699692273
Bq        -1.0874977893    -1.2475235390     1.5097664398
Bq        -1.0892677672    -1.0301099540     1.9600199242
Bq        -1.0871437938    -1.2910062560     1.4197157429
Bq        -1.0896217628    -0.9866272370     2.0500706211
Bq        -1.0867897982    -1.3344889731     1.3296650461
Bq        -1.0899757584    -0.9431445200     2.1401213180
Bq        -1.0864358026    -1.3779716901     1.2396143492
Bq        -1.0882057805    -1.1605581050     1.6898678336
Bq        -1.0883888438    -1.0270239954     1.7364361494
Bq        -1.0876808526    -1.1139894294     1.5563347557
Bq        -1.0887428394    -0.9835412784     1.8264868463
Bq        -1.0873268571    -1.1574721464     1.4662840588
Bq        -1.0890968349    -0.9400585614     1.9165375432
Bq        -1.0869728615    -1.2009548634     1.3762333619
Bq        -1.0894508305    -0.8965758443     2.0065882401
Bq        -1.0866188659    -1.2444375804     1.2861826650
Bq        -1.0898048261    -0.8530931273     2.0966389370
Bq        -1.0862648703    -1.2879202974     1.1961319681
Bq        -1.0880348482    -1.0705067124     1.6463854526
Bq        -1.0882179115    -0.9369726027     1.6929537684
Bq        -1.0875099204    -1.0239380367     1.5128523746
Bq        -1.0885719071    -0.8934898857     1.7830044653
Bq        -1.0871559248    -1.0674207537     1.4228016778
Bq        -1.0889259027    -0.8500071687     1.8730551622
Bq        -1.0868019292    -1.1109034707     1.3327509809
Bq        -1.0892798982    -0.8065244517     1.9631058590
Bq        -1.0864479336    -1.1543861877     1.2427002840
Bq        -1.0896338938    -0.7630417347     2.0531565559
Bq        -1.0860939381    -1.1978689047     1.1526495871
Bq        -1.0878639159    -0.9804553197     1.6029030715
Bq        -1.0880469792    -0.8469212100     1.6494713874
Bq        -1.0873389881    -0.9338866440     1.4693699936
Bq        -1.0884009748    -0.8034384930     1.7395220843
Bq        -1.0869849925    -0.9773693610     1.3793192967
Bq        -1.0887549704    -0.7599557760     1.8295727811
Bq        -1.0866309969    -1.0208520780     1.2892685998
Bq        -1.0891089660    -0.7164730590     1.9196234780
Bq        -1.0862770014    -1.0643347950     1.1992179030
Bq        -1.0894629615    -0.6729903420     2.0096741749
Bq        -1.0859230058    -1.1078175120     1.1091672061
Bq        -1.0876929837    -0.8904039270     1.5594206905
Bq        -1.0878760470    -0.7568698173     1.6059890063
Bq        -1.0871680558    -0.8438352514     1.4258876126
Bq        -1.0882300425    -0.7133871003     1.6960397032
Bq        -1.0868140602    -0.8873179684     1.3358369157
Bq        -1.0885840381    -0.6699043833     1.7860904001
Bq        -1.0864600647    -0.9308006854     1.2457862188
Bq        -1.0889380337    -0.6264216663     1.8761410970
Bq        -1.0861060691    -0.9742834024     1.1557355219
Bq        -1.0892920293    -0.5829389493     1.9661917939
Bq        -1.0857520735    -1.0177661194     1.0656848250
Bq        -1.0875220514    -0.8003525344     1.5159383095
Bq        -1.0877051147    -0.6668184247     1.5625066253
Bq        -1.0869971235    -0.7537838587     1.3824052315
Bq        -1.0880591103    -0.6233357077     1.6525573222
Bq        -1.0866431280    -0.7972665757     1.2923545347
Bq        -1.0884131058    -0.5798529907     1.7426080191
Bq        -1.0862891324    -0.8407492927     1.2023038378
Bq        -1.0887671014    -0.5363702737     1.8326587160
Bq        -1.0859351368    -0.8842320097     1.1122531409
Bq        -1.0891210970    -0.4928875567     1.9227094128
Bq        -1.0855811412    -0.9277147267     1.0222024440
Bq        -1.0873511191    -0.7103011417     1.4724559284
Bq        -1.0875341824    -0.5767670320     1.5190242443
Bq        -1.0868261913    -0.6637324660     1.3389228505
Bq        -1.0878881780    -0.5332843150     1.6090749412
Bq        -1.0864721957    -0.7072151830     1.2488721536
Bq        -1.0882421736    -0.4898015980     1.6991256380
Bq        -1.0861182001    -0.7506979000     1.1588214567
Bq        -1.0885961691    -0.4463188810     1.7891763349
Bq        -1.0857642045    -0.7941806170     1.0687707599
Bq        -1.0889501647    -0.4028361640     1.8792270318
Bq        -1.0854102090    -0.8376633340     0.9787200630
Bq        -1.0871801868    -0.6202497490     1.4289735474
Bq        -1.0873632501    -0.4867156393     1.4755418632
Bq        -1.0866552590    -0.5736810733     1.2954404695
Bq        -1.0877172457    -0.4432329223     1.5655925601
Bq        -1.0863012634    -0.6171637904     1.2053897726
Bq        -1.0880712413    -0.3997502053     1.6556432570
Bq        -1.0859472678    -0.6606465074     1.1153390757
Bq        -1.0884252369    -0.3562674883     1.7456939539
Bq        -1.0855932723    -0.7041292244     1.0252883788
Bq        -1.0887792324    -0.3127847713     1.8357446508
Bq        -1.0852392767    -0.7476119414     0.9352376819
Bq        -1.0870092546    -0.5301983563     1.3854911664
Bq        -1.0871923179    -0.3966642467     1.4320594822
Bq        -1.0864843267    -0.4836296807     1.2519580884
Bq        -1.0875463134    -0.3531815297     1.5221101791
Bq        -1.0861303311    -0.5271123977     1.1619073916
Bq        -1.0879003090    -0.3096988127     1.6121608760
Bq        -1.0857763356    -0.5705951147     1.0718566947
Bq        -1.0882543046    -0.2662160957     1.7022115729
Bq        -1.0854223400    -0.6140778317     0.9818059978
Bq        -1.0886083002    -0.2227333786     1.7922622697
Bq        -1.0850683444    -0.6575605487     0.8917553009
Bq        -1.0868383223    -0.4401469637     1.3420087853
Bq        -1.0870213856    -0.3066128540     1.3885771012
Bq        -1.0863133944    -0.3935782880     1.2084757074
Bq        -1.0873753812    -0.2631301370     1.4786277981
Bq        -1.0859593989    -0.4370610050     1.1184250105
Bq        -1.0877293767    -0.2196474200     1.5686784949
Bq        -1.0856054033    -0.4805437220     1.0283743136
Bq        -1.0880833723    -0.1761647030     1.6587291918
Bq        -1.0852514077    -0.5240264390     0.9383236168
Bq        -1.0884373679    -0.1326819860     1.7487798887
Bq        -1.0848974121    -0.5675091560     0.8482729199
Bq        -1.0866673900    -0.3500955710     1.2985264043
Bq        -1.0868504533    -0.2165614613     1.3450947201
Bq        -1.0861424622    -0.3035268953     1.1649933264
Bq        -1.0872044489    -0.1730787443     1.4351454170
Bq        -1.0857884666    -0.3470096123     1.0749426295
Bq        -1.0875584445    -0.1295960273     1.5251961139
Bq        -1.0854344710    -0.3904923293     0.9848919326
Bq        -1.0879124400    -0.0861133103     1.6152468108
Bq        -1.0850804754    -0.4339750463     0.8948412357
Bq        -1.0882664356    -0.0426305933     1.7052975077
Bq        -1.0847264799    -0.4774577634     0.8047905388
Bq        -1.0864964577    -0.2600441783     1.2550440233
Bq        -1.0866795210    -0.1265100687     1.3016123391
Bq        -1.0859715299    -0.2134755027     1.1215109453
Bq        -1.0870335166    -0.0830273517     1.3916630360
Bq        -1.0856175343    -0.2569582197     1.0314602485
Bq        -1.0873875122    -0.0395446346     1.4817137329
Bq        -1.0852635387    -0.3004409367     0.9414095516

1
2
3
4
5
6
7
8
9
10
11
12
13
14
15
16
17
18
19
20
21
22
23
24
25
26
27
28
29
30
31
32
33
34
35
36
37
38
39
40
41
42
43
44
45
46
47
48
49
50
51
52
53
54
55
56
57
58
59
60
61
62
63
64
65
66
67
68
69
70
71
72
73
74
75
76
77
78
79
80
81
82
83
84
85
86
87
88
89
90
91
92
93
94
95
96
97
98
99
100
101
102
103
104
105
106
107
108
109
110
111
112
113
114
115
116
117
118
119
120
121
122
123
124
125
126
127
128
129
130
131
132
133
134
135
136
137
138
139
140
141
142
143
144
145
146
147
148
149
150
151
152
153
154
155
156
157
158
159
160
161
162
163
164
165
166
167
168
169
170
171
172
173
174
175
176
177
178
179
180
181
182
183
184
185
186
187
188
189
190
191
192
193
194
195
196
197
198
199
200
201
202
203
204
205
206
207
208
209
210
211
212
213
214
215
216
217
218
219
220
221
222
223
224
225
226
227
228
229
230
231
232
233
234
235
236

