%nproc=8
%mem=1000MB
# rb3lyp/6-311+g** NMR geom=connectivity

Title

0 1
C    -4.0500558   -0.5771862    0.8136712
H    -5.0263804   -1.0082727    1.0024760
C    -3.9381552    0.6617804    0.2400876
H    -4.8252424    1.2338890   -0.0111295
C    -2.6768410    1.2433246    0.0057578
C    -1.4974121    0.5051527    0.2848253
C    -1.6508332   -0.7338728    0.9404026
H    -0.7713646   -1.2730967    1.2633753
C    -2.8898548   -1.2624035    1.1994307
H    -2.9683706   -2.2124563    1.7152676
C    -2.5773185    2.5963696   -0.4192930
H    -3.4870728    3.1412239   -0.6474055
C    -1.3741895    3.2147896   -0.4364030
H    -1.2997315    4.2742019   -0.6578144
C    -0.1719488    2.4994090   -0.1734588
C    -0.2043917    1.1018437    0.0192689
C     1.0513491    3.2042560   -0.0676222
H     1.0427344    4.2819499   -0.1896997
C     2.1942091    2.5487446    0.2579577
H     3.1168527    3.0912848    0.4334727
C     2.2216473    1.1336562    0.2934990
C     1.0486931    0.3945528    0.0302412
C     3.4483363    0.4614633    0.5573939
H     4.3095794    1.0606054    0.8334846
C     3.5427346   -0.8855926    0.4749463
H     4.4731467   -1.3939704    0.7038822
C     2.4490052   -1.6474447   -0.0196319
C     1.2150704   -1.0057258   -0.3013573
C     0.2531113   -1.7434440   -1.0216591
H    -0.6541356   -1.2535051   -1.3462847
C     0.4494193   -3.0628597   -1.3413779
H    -0.3083162   -3.5944309   -1.9054060
C     1.6251726   -3.7207967   -0.9552541
H     1.7670048   -4.7687404   -1.1927019
C     2.6109872   -3.0144177   -0.3183050
H     3.5525612   -3.4902813   -0.0646367
Bq         4.1191112183     0.0245386231     0.8022434468
Bq         3.8880014394    -0.1035103082     1.6625874136
Bq         4.1447900826     0.0387662821     0.7066496727
Bq         4.0163957610    -0.0323720130     1.1846185431
Bq         3.9870258461     0.0523830220     1.2939528568
Bq         4.0383835748     0.0808383400     1.1027653086
Bq         3.9613469818     0.0381553629     1.3895466309
Bq         4.0640624391     0.0950659991     1.0071715345
Bq         3.9356681175     0.0239277039     1.4851404050
Bq         4.0897413034     0.1092936581     0.9115777604
Bq         3.9099892532     0.0097000449     1.5807341791
Bq         4.1154201678     0.1235213171     0.8159839863
Bq         3.8843103889    -0.0045276141     1.6763279532
Bq         4.1410990321     0.1377489761     0.7203902122
Bq         4.0127047105     0.0666106810     1.1983590827
Bq         3.9833347956     0.1513657160     1.3076933964
Bq         4.0346925243     0.1798210341     1.1165058482
Bq         3.9576559313     0.1371380570     1.4032871704
Bq         4.0603713886     0.1940486931     1.0209120741
Bq         3.9319770670     0.1229103980     1.4988809445
Bq         4.0860502529     0.2082763521     0.9253183000
Bq         3.9062982026     0.1086827389     1.5944747186
Bq         4.1117291172     0.2225040112     0.8297245259
Bq         3.8806193383     0.0944550799     1.6900684927
Bq         4.1374079815     0.2367316702     0.7341307518
Bq         4.0090136599     0.1655933750     1.2120996223
Bq         3.9796437451     0.2503484100     1.3214339359
Bq         4.0310014737     0.2788037281     1.1302463877
Bq         3.9539648807     0.2361207510     1.4170277100
Bq         4.0566803380     0.2930313871     1.0346526136
Bq         3.9282860164     0.2218930920     1.5126214841
Bq         4.0823592024     0.3072590462     0.9390588395
Bq         3.9026071521     0.2076654330     1.6082152582
Bq         4.1080380667     0.3214867052     0.8434650654
Bq         3.8769282878     0.1934377739     1.7038090323
Bq         4.1337169310     0.3357143642     0.7478712913
Bq         4.0053226094     0.2645760691     1.2258401618
Bq         3.9759526945     0.3493311041     1.3351744755
Bq         4.0273104232     0.3777864221     1.1439869273
Bq         3.9502738302     0.3351034451     1.4307682496
Bq         4.0529892875     0.3920140812     1.0483931532
Bq         3.9245949659     0.3208757860     1.5263620237
Bq         4.0786681518     0.4062417402     0.9527993791
Bq         3.8989161016     0.3066481270     1.6219557978
Bq         4.1043470161     0.4204693992     0.8572056050
Bq         3.8732372372     0.2924204680     1.7175495719
Bq         4.1300258805     0.4346970583     0.7616118309
Bq         4.0016315589     0.3635587631     1.2395807014
Bq         3.9722616440     0.4483137981     1.3489150150
Bq         4.0236193726     0.4767691162     1.1577274668
Bq         3.9465827797     0.4340861391     1.4445087891
Bq         4.0492982370     0.4909967752     1.0621336927
Bq         3.9209039154     0.4198584801     1.5401025632
Bq         4.0749771013     0.5052244342     0.9665399187
Bq         3.8952250510     0.4056308210     1.6356963373
Bq         4.1006559656     0.5194520933     0.8709461446
Bq         3.8695461867     0.3914031620     1.7312901114
Bq         4.1263348299     0.5336797523     0.7753523705
Bq         3.9979405083     0.4625414571     1.2533212409
Bq         3.9685705935     0.5472964922     1.3626555546
Bq         4.0199283221     0.5757518102     1.1714680064
Bq         3.9428917291     0.5330688331     1.4582493287
Bq         4.0456071864     0.5899794692     1.0758742323
Bq         3.9172128648     0.5188411741     1.5538431028
Bq         4.0712860508     0.6042071283     0.9802804582
Bq         3.8915340005     0.5046135151     1.6494368769
Bq         4.0969649151     0.6184347873     0.8846866841
Bq         3.8658551362     0.4903858560     1.7450306510
Bq         4.1226437794     0.6326624463     0.7890929100
Bq         3.9942494578     0.5615241512     1.2670617805
Bq         3.9648795429     0.6462791862     1.3763960941
Bq         4.0162372716     0.6747345042     1.1852085460
Bq         3.9392006786     0.6320515272     1.4719898682
Bq         4.0419161359     0.6889621633     1.0896147719
Bq         3.9135218143     0.6178238681     1.5675836423
Bq         4.0675950002     0.7031898223     0.9940209978
Bq         3.8878429500     0.6035962091     1.6631774164
Bq         4.0932738645     0.7174174813     0.8984272237
Bq         3.8621640856     0.5893685501     1.7587711905
Bq         4.1189527289     0.7316451404     0.8028334496
Bq         3.9905584073     0.6605068452     1.2808023201
Bq         3.9611884924     0.7452618802     1.3901366337
Bq         4.0125462210     0.7737171983     1.1989490855
Bq         3.9355096281     0.7310342212     1.4857304078
Bq         4.0382250854     0.7879448573     1.1033553114
Bq         3.9098307637     0.7168065622     1.5813241819
Bq         4.0639039497     0.8021725163     1.0077615373
Bq         3.8841518994     0.7025789031     1.6769179560
Bq         4.0895828140     0.8164001754     0.9121677632
Bq         3.8584730351     0.6883512441     1.7725117301
Bq         4.1152616783     0.8306278344     0.8165739891
Bq         3.9868673567     0.7594895393     1.2945428596
Bq         3.9574974419     0.8442445743     1.4038771733
Bq         4.0088551705     0.8726998923     1.2126896251
Bq         3.9318185775     0.8300169152     1.4994709474
Bq         4.0345340348     0.8869275513     1.1170958510
Bq         3.9061397132     0.8157892562     1.5950647215
Bq         4.0602128991     0.9011552104     1.0215020769
Bq         3.8804608489     0.8015615972     1.6906584956
Bq         4.0858917635     0.9153828694     0.9259083028
Bq         3.8547819846     0.7873339381     1.7862522696
Bq         4.1115706278     0.9296105284     0.8303145287
Bq         3.9831763062     0.8584722333     1.3082833992
Bq         3.9538063913     0.9432272683     1.4176177128
Bq         4.0051641200     0.9716825864     1.2264301646
Bq         3.9281275270     0.9289996093     1.5132114869
Bq         4.0308429843     0.9859102454     1.1308363905
Bq         3.9024486627     0.9147719502     1.6088052610
Bq         4.0565218486     1.0001379044     1.0352426164
Bq         3.8767697984     0.9005442912     1.7043990351
Bq         4.0822007129     1.0143655634     0.9396488424
Bq         3.8510909340     0.8863166322     1.7999928092
Bq         4.1078795773     1.0285932225     0.8440550683
Bq         3.9794852556     0.9574549273     1.3220239387
Bq         3.9501153408     1.0422099623     1.4313582524
Bq         4.0014730694     1.0706652804     1.2401707042
Bq         3.9244364765     1.0279823033     1.5269520265
Bq         4.0271519338     1.0848929394     1.1445769301
Bq         3.8987576121     1.0137546443     1.6225458006
Bq         4.0528307981     1.0991205984     1.0489831560
Bq         3.8730787478     0.9995269852     1.7181395747
Bq         4.0785096624     1.1133482575     0.9533893819
Bq         3.8473998835     0.9852993262     1.8137333488
Bq         4.1041885267     1.1275759165     0.8577956078
Bq         3.9757942051     1.0564376214     1.3357644783
Bq         3.9464242903     1.1411926564     1.4450987919
Bq         3.9977820189     1.1696479744     1.2539112438
Bq         3.9207454259     1.1269649973     1.5406925660
Bq         4.0234608832     1.1838756335     1.1583174697
Bq         3.8950665616     1.1127373383     1.6362863401
Bq         4.0491397475     1.1981032925     1.0627236956
Bq         3.8693876973     1.0985096793     1.7318801142
Bq         4.0748186119     1.2123309515     0.9671299215
Bq         3.8437088330     1.0842820203     1.8274738883
Bq         4.1004974762     1.2265586105     0.8715361474
Bq         3.9721031546     1.1554203154     1.3495050178
Bq         3.9427332397     1.2401753504     1.4588393315
Bq         3.9940909684     1.2686306685     1.2676517833
Bq         3.9170543754     1.2259476914     1.5544331056
Bq         4.0197698327     1.2828583275     1.1720580092
Bq         3.8913755111     1.2117200323     1.6500268797
Bq         4.0454486970     1.2970859865     1.0764642351
Bq         3.8656966467     1.1974923733     1.7456206538
Bq         4.0711275613     1.3113136455     0.9808704610
Bq         3.8400177824     1.1832647143     1.8412144279
Bq         4.0968064257     1.3255413046     0.8852766869
Bq         3.9684121040     1.2544030094     1.3632455574
Bq         3.9390421892     1.3391580444     1.4725798711
Bq         3.9903999178     1.3676133625     1.2813923229
Bq         3.9133633249     1.3249303854     1.5681736452
Bq         4.0160787821     1.3818410215     1.1857985488
Bq         3.8876844605     1.3107027264     1.6637674192
Bq         4.0417576465     1.3960686806     1.0902047747
Bq         3.8620055962     1.2964750674     1.7593611933
Bq         4.0674365108     1.4102963396     0.9946110006
Bq         3.8363267319     1.2822474083     1.8549549674
Bq         4.0931153751     1.4245239986     0.8990172265
Bq         3.9647210535     1.3533857035     1.3769860970
Bq         3.9353511386     1.4381407385     1.4863204106
Bq         3.9867088673     1.4665960565     1.2951328624
Bq         3.9096722743     1.4239130794     1.5819141847
Bq         4.0123877316     1.4808237156     1.1995390883
Bq         3.8839934100     1.4096854204     1.6775079588
Bq         4.0380665959     1.4950513746     1.1039453142
Bq         3.8583145457     1.3954577614     1.7731017329
Bq         4.0637454603     1.5092790336     1.0083515401
Bq         3.8326356814     1.3812301024     1.8686955070
Bq         4.0894243246     1.5235066926     0.9127577661
Bq         3.9610300030     1.4523683975     1.3907266365
Bq         3.9316600881     1.5371234325     1.5000609502
Bq         3.9830178168     1.5655787506     1.3088734020
Bq         3.9059812238     1.5228957735     1.5956547243
Bq         4.0086966811     1.5798064096     1.2132796279
Bq         3.8803023595     1.5086681145     1.6912484984
Bq         4.0343755454     1.5940340686     1.1176858538
Bq         3.8546234951     1.4944404554     1.7868422725
Bq         4.0600544097     1.6082617277     1.0220920797
Bq         3.8289446308     1.4802127964     1.8824360466
Bq         4.0857332740     1.6224893867     0.9264983056
Bq         3.9573389524     1.5513510915     1.4044671761
Bq         3.9279690376     1.6361061265     1.5138014897
Bq         3.9793267662     1.6645614446     1.3226139415
Bq         3.9022901733     1.6218784675     1.6093952638
Bq         4.0050056305     1.6787891036     1.2270201675
Bq         3.8766113089     1.6076508085     1.7049890379
Bq         4.0306844949     1.6930167627     1.1314263934
Bq         3.8509324446     1.5934231495     1.8005828120
Bq         4.0563633592     1.7072444217     1.0358326193
Bq         3.8252535803     1.5791954904     1.8961765861
Bq         4.0820422235     1.7214720807     0.9402388452
Bq         3.9536479019     1.6503337856     1.4182077156
Bq         3.9242779870     1.7350888206     1.5275420293
Bq         3.9756357157     1.7635441386     1.3363544811
Bq         3.8985991227     1.7208611616     1.6231358034
Bq         4.0013145800     1.7777717977     1.2407607070
Bq         3.8729202584     1.7066335025     1.7187295775
Bq         4.0269934443     1.7919994567     1.1451669329
Bq         3.8472413941     1.6924058435     1.8143233516
Bq         4.0526723087     1.8062271157     1.0495731588
Bq         3.8215625297     1.6781781845     1.9099171257

1
2
3
4
5
6
7
8
9
10
11
12
13
14
15
16
17
18
19
20
21
22
23
24
25
26
27
28
29
30
31
32
33
34
35
36
37
38
39
40
41
42
43
44
45
46
47
48
49
50
51
52
53
54
55
56
57
58
59
60
61
62
63
64
65
66
67
68
69
70
71
72
73
74
75
76
77
78
79
80
81
82
83
84
85
86
87
88
89
90
91
92
93
94
95
96
97
98
99
100
101
102
103
104
105
106
107
108
109
110
111
112
113
114
115
116
117
118
119
120
121
122
123
124
125
126
127
128
129
130
131
132
133
134
135
136
137
138
139
140
141
142
143
144
145
146
147
148
149
150
151
152
153
154
155
156
157
158
159
160
161
162
163
164
165
166
167
168
169
170
171
172
173
174
175
176
177
178
179
180
181
182
183
184
185
186
187
188
189
190
191
192
193
194
195
196
197
198
199
200
201
202
203
204
205
206
207
208
209
210
211
212
213
214
215
216
217
218
219
220
221
222
223
224
225
226
227
228
229
230
231
232
233
234
235
236

