%nproc=8
%mem=1000MB
# rb3lyp/6-311+g** NMR geom=connectivity

Title

0 1
C    -4.0500558   -0.5771862    0.8136712
H    -5.0263804   -1.0082727    1.0024760
C    -3.9381552    0.6617804    0.2400876
H    -4.8252424    1.2338890   -0.0111295
C    -2.6768410    1.2433246    0.0057578
C    -1.4974121    0.5051527    0.2848253
C    -1.6508332   -0.7338728    0.9404026
H    -0.7713646   -1.2730967    1.2633753
C    -2.8898548   -1.2624035    1.1994307
H    -2.9683706   -2.2124563    1.7152676
C    -2.5773185    2.5963696   -0.4192930
H    -3.4870728    3.1412239   -0.6474055
C    -1.3741895    3.2147896   -0.4364030
H    -1.2997315    4.2742019   -0.6578144
C    -0.1719488    2.4994090   -0.1734588
C    -0.2043917    1.1018437    0.0192689
C     1.0513491    3.2042560   -0.0676222
H     1.0427344    4.2819499   -0.1896997
C     2.1942091    2.5487446    0.2579577
H     3.1168527    3.0912848    0.4334727
C     2.2216473    1.1336562    0.2934990
C     1.0486931    0.3945528    0.0302412
C     3.4483363    0.4614633    0.5573939
H     4.3095794    1.0606054    0.8334846
C     3.5427346   -0.8855926    0.4749463
H     4.4731467   -1.3939704    0.7038822
C     2.4490052   -1.6474447   -0.0196319
C     1.2150704   -1.0057258   -0.3013573
C     0.2531113   -1.7434440   -1.0216591
H    -0.6541356   -1.2535051   -1.3462847
C     0.4494193   -3.0628597   -1.3413779
H    -0.3083162   -3.5944309   -1.9054060
C     1.6251726   -3.7207967   -0.9552541
H     1.7670048   -4.7687404   -1.1927019
C     2.6109872   -3.0144177   -0.3183050
H     3.5525612   -3.4902813   -0.0646367
Bq        -2.5410508088     2.6381817306     0.4642494657
Bq        -2.5179989208     2.4908858264    -0.1169325429
Bq        -2.5448927901     2.6627310480     0.5611131337
Bq        -2.5141569395     2.4663365090    -0.2137962110
Bq        -2.5487347714     2.6872803654     0.6579768018
Bq        -2.5103149581     2.4417871916    -0.3106598791
Bq        -2.5295248648     2.5645337785     0.1736584614
Bq        -2.5323938919     2.6860229278     0.2459921000
Bq        -2.5247099292     2.6369242931     0.0522647639
Bq        -2.5362358732     2.7105722452     0.3428557681
Bq        -2.5208679479     2.6123749757    -0.0445989042
Bq        -2.5400778546     2.7351215626     0.4397194362
Bq        -2.5170259666     2.5878256583    -0.1414625723
Bq        -2.5439198359     2.7596708800     0.5365831043
Bq        -2.5131839853     2.5632763409    -0.2383262404
Bq        -2.5477618172     2.7842201973     0.6334467724
Bq        -2.5093420039     2.5387270236    -0.3351899085
Bq        -2.5285519106     2.6614736105     0.1491284320
Bq        -2.5314209377     2.7829627598     0.2214620706
Bq        -2.5237369750     2.7338641250     0.0277347344
Bq        -2.5352629190     2.8075120771     0.3183257387
Bq        -2.5198949937     2.7093148076    -0.0691289337
Bq        -2.5391049003     2.8320613945     0.4151894068
Bq        -2.5160530124     2.6847654903    -0.1659926017
Bq        -2.5429468817     2.8566107119     0.5120530749
Bq        -2.5122110310     2.6602161729    -0.2628562698
Bq        -2.5467888630     2.8811600293     0.6089167430
Bq        -2.5083690497     2.6356668555    -0.3597199379
Bq        -2.5275789563     2.7584134424     0.1245984025
Bq        -2.5304479835     2.8799025917     0.1969320412
Bq        -2.5227640208     2.8308039570     0.0032047050
Bq        -2.5342899648     2.9044519091     0.2937957093
Bq        -2.5189220395     2.8062546396    -0.0936589631
Bq        -2.5381319461     2.9290012265     0.3906593774
Bq        -2.5150800581     2.7817053222    -0.1905226312
Bq        -2.5419739274     2.9535505438     0.4875230455
Bq        -2.5112380768     2.7571560048    -0.2873862993
Bq        -2.5458159088     2.9780998612     0.5843867136
Bq        -2.5073960955     2.7326066875    -0.3842499673
Bq        -2.5266060021     2.8553532743     0.1000683731
Bq        -2.5294750292     2.9768424236     0.1724020118
Bq        -2.5217910666     2.9277437889    -0.0213253244
Bq        -2.5333170106     3.0013917410     0.2692656799
Bq        -2.5179490852     2.9031944715    -0.1181889925
Bq        -2.5371589919     3.0259410584     0.3661293479
Bq        -2.5141071039     2.8786451541    -0.2150526606
Bq        -2.5410009732     3.0504903758     0.4629930160
Bq        -2.5102651226     2.8540958368    -0.3119163287
Bq        -2.5448429545     3.0750396931     0.5598566841
Bq        -2.5064231413     2.8295465194    -0.4087799968
Bq        -2.5256330479     2.9522931063     0.0755383437
Bq        -2.5285020750     3.0737822556     0.1478719823
Bq        -2.5208181123     3.0246836208    -0.0458553538
Bq        -2.5323440563     3.0983315730     0.2447356504
Bq        -2.5169761310     3.0001343035    -0.1427190219
Bq        -2.5361860377     3.1228808903     0.3415993185
Bq        -2.5131341497     2.9755849861    -0.2395826900
Bq        -2.5400280190     3.1474302077     0.4384629866
Bq        -2.5092921684     2.9510356687    -0.3364463581
Bq        -2.5438700003     3.1719795251     0.5353266547
Bq        -2.5054501870     2.9264863513    -0.4333100262
Bq        -2.5246600937     3.0492329382     0.0510083142
Bq        -2.5275291208     3.1707220875     0.1233419529
Bq        -2.5198451581     3.1216234528    -0.0703853833
Bq        -2.5313711021     3.1952714049     0.2202056210
Bq        -2.5160031768     3.0970741354    -0.1672490514
Bq        -2.5352130834     3.2198207223     0.3170692891
Bq        -2.5121611955     3.0725248180    -0.2641127195
Bq        -2.5390550648     3.2443700397     0.4139329572
Bq        -2.5083192141     3.0479755006    -0.3609763875
Bq        -2.5428970461     3.2689193570     0.5107966253
Bq        -2.5044772328     3.0234261833    -0.4578400556
Bq        -2.5236871394     3.1461727701     0.0264782848
Bq        -2.5265561666     3.2676619195     0.0988119235
Bq        -2.5188722039     3.2185632847    -0.0949154127
Bq        -2.5303981479     3.2922112368     0.1956755916
Bq        -2.5150302226     3.1940139673    -0.1917790808
Bq        -2.5342401292     3.3167605542     0.2925392597
Bq        -2.5111882412     3.1694646500    -0.2886427489
Bq        -2.5380821105     3.3413098716     0.3894029278
Bq        -2.5073462599     3.1449153326    -0.3855064170
Bq        -2.5419240919     3.3658591890     0.4862665958
Bq        -2.5035042786     3.1203660152    -0.4823700851
Bq        -2.5227141852     3.2431126021     0.0019482554
Bq        -2.5255832123     3.3646017514     0.0742818941
Bq        -2.5178992497     3.3155031167    -0.1194454421
Bq        -2.5294251937     3.3891510688     0.1711455621
Bq        -2.5140572683     3.2909537993    -0.2163091102
Bq        -2.5332671750     3.4137003862     0.2680092302
Bq        -2.5102152870     3.2664044819    -0.3131727783
Bq        -2.5371091563     3.4382497035     0.3648728983
Bq        -2.5063733057     3.2418551645    -0.4100364464
Bq        -2.5409511376     3.4627990209     0.4617365664
Bq        -2.5025313244     3.2173058471    -0.5069001145
Bq        -2.5217412310     3.3400524340    -0.0225817740
Bq        -2.5246102581     3.4615415833     0.0497518646
Bq        -2.5169262954     3.4124429486    -0.1439754716
Bq        -2.5284522394     3.4860909007     0.1466155327
Bq        -2.5130843141     3.3878936312    -0.2408391396
Bq        -2.5322942208     3.5106402181     0.2434792008
Bq        -2.5092423328     3.3633443138    -0.3377028077
Bq        -2.5361362021     3.5351895355     0.3403428689
Bq        -2.5054003515     3.3387949965    -0.4345664758
Bq        -2.5399781834     3.5597388528     0.4372065370
Bq        -2.5015583701     3.3142456791    -0.5314301439
Bq        -2.5207682768     3.4369922660    -0.0471118035
Bq        -2.5236373039     3.5584814153     0.0252218352
Bq        -2.5159533412     3.5093827805    -0.1685055010
Bq        -2.5274792852     3.5830307327     0.1220855033
Bq        -2.5121113599     3.4848334632    -0.2653691691
Bq        -2.5313212665     3.6075800500     0.2189491714
Bq        -2.5082693786     3.4602841458    -0.3622328372
Bq        -2.5351632479     3.6321293674     0.3158128395
Bq        -2.5044273972     3.4357348284    -0.4590965052
Bq        -2.5390052292     3.6566786848     0.4126765076
Bq        -2.5005854159     3.4111855110    -0.5559601733
Bq        -2.5197953226     3.5339320979    -0.0716418329
Bq        -2.5226643497     3.6554212472     0.0006918058
Bq        -2.5149803870     3.6063226125    -0.1930355304
Bq        -2.5265063310     3.6799705646     0.0975554739
Bq        -2.5111384057     3.5817732951    -0.2898991985
Bq        -2.5303483123     3.7045198820     0.1944191420
Bq        -2.5072964243     3.5572239777    -0.3867628666
Bq        -2.5341902936     3.7290691993     0.2912828100
Bq        -2.5034544430     3.5326746603    -0.4836265347
Bq        -2.5380322750     3.7536185167     0.3881464781
Bq        -2.4996124617     3.5081253430    -0.5804902028
Bq        -2.5188223683     3.6308719298    -0.0961718623
Bq        -2.5216913954     3.7523610792    -0.0238382237
Bq        -2.5140074328     3.7032624444    -0.2175655598
Bq        -2.5255333768     3.7769103965     0.0730254444
Bq        -2.5101654514     3.6787131270    -0.3144292279
Bq        -2.5293753581     3.8014597139     0.1698891125
Bq        -2.5063234701     3.6541638097    -0.4112928960
Bq        -2.5332173394     3.8260090313     0.2667527806
Bq        -2.5024814888     3.6296144923    -0.5081565641
Bq        -2.5370593207     3.8505583487     0.3636164487
Bq        -2.4986395075     3.6050651749    -0.6050202322
Bq        -2.5178494141     3.7278117618    -0.1207018917
Bq        -2.5207184412     3.8493009111    -0.0483682531
Bq        -2.5130344785     3.8002022763    -0.2420955893
Bq        -2.5245604225     3.8738502285     0.0484954150
Bq        -2.5091924972     3.7756529590    -0.3389592574
Bq        -2.5284024039     3.8983995458     0.1453590831
Bq        -2.5053505159     3.7511036416    -0.4358229254
Bq        -2.5322443852     3.9229488632     0.2422227512
Bq        -2.5015085346     3.7265543242    -0.5326865935
Bq        -2.5360863665     3.9474981806     0.3390864193
Bq        -2.4976665532     3.7020050068    -0.6295502616
Bq        -2.5168764599     3.8247515937    -0.1452319212
Bq        -2.5197454870     3.9462407430    -0.0728982825
Bq        -2.5120615243     3.8971421083    -0.2666256187
Bq        -2.5235874683     3.9707900604     0.0239653856
Bq        -2.5082195430     3.8725927909    -0.3634892868
Bq        -2.5274294496     3.9953393778     0.1208290537
Bq        -2.5043775617     3.8480434735    -0.4603529549
Bq        -2.5312714310     4.0198886952     0.2176927218
Bq        -2.5005355803     3.8234941562    -0.5572166230
Bq        -2.5351134123     4.0444380125     0.3145563899
Bq        -2.4966935990     3.7989448388    -0.6540802910
Bq        -2.5159035057     3.9216914257    -0.1697619506
Bq        -2.5187725328     4.0431805750    -0.0974283119
Bq        -2.5110885701     3.9940819402    -0.2911556481
Bq        -2.5226145141     4.0677298924    -0.0005646438
Bq        -2.5072465888     3.9695326228    -0.3880193162
Bq        -2.5264564954     4.0922792097     0.0962990242
Bq        -2.5034046074     3.9449833055    -0.4848829843
Bq        -2.5302984767     4.1168285271     0.1931626923
Bq        -2.4995626261     3.9204339881    -0.5817466524
Bq        -2.5341404581     4.1413778445     0.2900263604
Bq        -2.4957206448     3.8958846707    -0.6786103205
Bq        -2.5149305514     4.0186312576    -0.1942919800
Bq        -2.5177995785     4.1401204069    -0.1219583414
Bq        -2.5101156159     4.0910217722    -0.3156856775
Bq        -2.5216415599     4.1646697243    -0.0250946733
Bq        -2.5062736345     4.0664724548    -0.4125493456
Bq        -2.5254835412     4.1892190417     0.0717689948
Bq        -2.5024316532     4.0419231374    -0.5094130137
Bq        -2.5293255225     4.2137683590     0.1686326629
Bq        -2.4985896719     4.0173738200    -0.6062766818
Bq        -2.5331675038     4.2383176764     0.2654963310
Bq        -2.4947476906     3.9928245027    -0.7031403499
Bq        -2.5139575972     4.1155710895    -0.2188220095
Bq        -2.5168266243     4.2370602389    -0.1464883708
Bq        -2.5091426617     4.1879616041    -0.3402157070
Bq        -2.5206686056     4.2616095562    -0.0496247027
Bq        -2.5053006803     4.1634122867    -0.4370793751
Bq        -2.5245105870     4.2861588736     0.0472389654
Bq        -2.5014586990     4.1388629694    -0.5339430431
Bq        -2.5283525683     4.3107081910     0.1441026335
Bq        -2.4976167177     4.1143136520    -0.6308067112
Bq        -2.5321945496     4.3352575084     0.2409663016
Bq        -2.4937747363     4.0897643346    -0.7276703793
Bq        -2.5129846430     4.2125109215    -0.2433520389
Bq        -2.5158536701     4.3340000708    -0.1710184002
Bq        -2.5081697074     4.2849014360    -0.3647457364
Bq        -2.5196956514     4.3585493882    -0.0741547321
Bq        -2.5043277261     4.2603521187    -0.4616094045
Bq        -2.5235376327     4.3830987055     0.0227089360
Bq        -2.5004857448     4.2358028013    -0.5584730726

1
2
3
4
5
6
7
8
9
10
11
12
13
14
15
16
17
18
19
20
21
22
23
24
25
26
27
28
29
30
31
32
33
34
35
36
37
38
39
40
41
42
43
44
45
46
47
48
49
50
51
52
53
54
55
56
57
58
59
60
61
62
63
64
65
66
67
68
69
70
71
72
73
74
75
76
77
78
79
80
81
82
83
84
85
86
87
88
89
90
91
92
93
94
95
96
97
98
99
100
101
102
103
104
105
106
107
108
109
110
111
112
113
114
115
116
117
118
119
120
121
122
123
124
125
126
127
128
129
130
131
132
133
134
135
136
137
138
139
140
141
142
143
144
145
146
147
148
149
150
151
152
153
154
155
156
157
158
159
160
161
162
163
164
165
166
167
168
169
170
171
172
173
174
175
176
177
178
179
180
181
182
183
184
185
186
187
188
189
190
191
192
193
194
195
196
197
198
199
200
201
202
203
204
205
206
207
208
209
210
211
212
213
214
215
216
217
218
219
220
221
222
223
224
225
226
227
228
229
230
231
232
233
234
235
236

