%nproc=8
%mem=1000MB
# rb3lyp/6-311+g** NMR geom=connectivity

Title

0 1
C    -4.0500558   -0.5771862    0.8136712
H    -5.0263804   -1.0082727    1.0024760
C    -3.9381552    0.6617804    0.2400876
H    -4.8252424    1.2338890   -0.0111295
C    -2.6768410    1.2433246    0.0057578
C    -1.4974121    0.5051527    0.2848253
C    -1.6508332   -0.7338728    0.9404026
H    -0.7713646   -1.2730967    1.2633753
C    -2.8898548   -1.2624035    1.1994307
H    -2.9683706   -2.2124563    1.7152676
C    -2.5773185    2.5963696   -0.4192930
H    -3.4870728    3.1412239   -0.6474055
C    -1.3741895    3.2147896   -0.4364030
H    -1.2997315    4.2742019   -0.6578144
C    -0.1719488    2.4994090   -0.1734588
C    -0.2043917    1.1018437    0.0192689
C     1.0513491    3.2042560   -0.0676222
H     1.0427344    4.2819499   -0.1896997
C     2.1942091    2.5487446    0.2579577
H     3.1168527    3.0912848    0.4334727
C     2.2216473    1.1336562    0.2934990
C     1.0486931    0.3945528    0.0302412
C     3.4483363    0.4614633    0.5573939
H     4.3095794    1.0606054    0.8334846
C     3.5427346   -0.8855926    0.4749463
H     4.4731467   -1.3939704    0.7038822
C     2.4490052   -1.6474447   -0.0196319
C     1.2150704   -1.0057258   -0.3013573
C     0.2531113   -1.7434440   -1.0216591
H    -0.6541356   -1.2535051   -1.3462847
C     0.4494193   -3.0628597   -1.3413779
H    -0.3083162   -3.5944309   -1.9054060
C     1.6251726   -3.7207967   -0.9552541
H     1.7670048   -4.7687404   -1.1927019
C     2.6109872   -3.0144177   -0.3183050
H     3.5525612   -3.4902813   -0.0646367
Bq         0.5959160202    -0.5784439673     0.2175102600
Bq         0.4656324428    -0.5342226016     1.1069317913
Bq         0.6103919732    -0.5833574524     0.1186856454
Bq         0.5380122080    -0.5587900270     0.6128087183
Bq         0.5242483889    -0.4539973265     0.7067717281
Bq         0.5532002950    -0.4638242967     0.5091224990
Bq         0.5097724359    -0.4490838414     0.8055963427
Bq         0.5676762481    -0.4687377818     0.4102978844
Bq         0.4952964828    -0.4441703563     0.9044209573
Bq         0.5821522011    -0.4736512668     0.3114732698
Bq         0.4808205298    -0.4392568713     1.0032455719
Bq         0.5966281541    -0.4785647519     0.2126486552
Bq         0.4663445767    -0.4343433862     1.1020701865
Bq         0.6111041072    -0.4834782370     0.1138240406
Bq         0.5387243420    -0.4589108116     0.6079471136
Bq         0.5249605229    -0.3541181111     0.7019101234
Bq         0.5539124290    -0.3639450813     0.5042608942
Bq         0.5104845698    -0.3492046261     0.8007347380
Bq         0.5683883820    -0.3688585664     0.4054362796
Bq         0.4960086168    -0.3442911410     0.8995593526
Bq         0.5828643350    -0.3737720515     0.3066116650
Bq         0.4815326637    -0.3393776559     0.9983839671
Bq         0.5973402881    -0.3786855365     0.2077870505
Bq         0.4670567107    -0.3344641708     1.0972085817
Bq         0.6118162411    -0.3835990216     0.1089624359
Bq         0.5394364759    -0.3590315962     0.6030855088
Bq         0.5256726568    -0.2542388958     0.6970485186
Bq         0.5546245629    -0.2640658659     0.4993992894
Bq         0.5111967038    -0.2493254107     0.7958731332
Bq         0.5691005159    -0.2689793510     0.4005746749
Bq         0.4967207507    -0.2444119256     0.8946977478
Bq         0.5835764690    -0.2738928361     0.3017500603
Bq         0.4822447977    -0.2394984405     0.9935223624
Bq         0.5980524220    -0.2788063212     0.2029254457
Bq         0.4677688446    -0.2345849554     1.0923469770
Bq         0.6125283751    -0.2837198063     0.1041008311
Bq         0.5401486099    -0.2591523808     0.5982239040
Bq         0.5263847907    -0.1543596804     0.6921869138
Bq         0.5553366968    -0.1641866505     0.4945376847
Bq         0.5119088377    -0.1494461953     0.7910115284
Bq         0.5698126499    -0.1691001356     0.3957130701
Bq         0.4974328847    -0.1445327102     0.8898361430
Bq         0.5842886029    -0.1740136207     0.2968884555
Bq         0.4829569316    -0.1396192251     0.9886607576
Bq         0.5987645560    -0.1789271058     0.1980638409
Bq         0.4684809786    -0.1347057400     1.0874853722
Bq         0.6132405090    -0.1838405909     0.0992392263
Bq         0.5408607438    -0.1592731655     0.5933622993
Bq         0.5270969247    -0.0544804650     0.6873253091
Bq         0.5560488308    -0.0643074352     0.4896760799
Bq         0.5126209716    -0.0495669799     0.7861499237
Bq         0.5705247838    -0.0692209203     0.3908514653
Bq         0.4981450186    -0.0446534948     0.8849745383
Bq         0.5850007369    -0.0741344053     0.2920268507
Bq         0.4836690656    -0.0397400098     0.9837991528
Bq         0.5994766899    -0.0790478904     0.1932022362
Bq         0.4691931125    -0.0348265247     1.0826237674
Bq         0.6139526430    -0.0839613755     0.0943776216
Bq         0.5415728777    -0.0593939501     0.5885006945
Bq         0.5278090586     0.0453987504     0.6824637043
Bq         0.5567609647     0.0355717802     0.4848144751
Bq         0.5133331056     0.0503122355     0.7812883189
Bq         0.5712369178     0.0306582951     0.3859898606
Bq         0.4988571525     0.0552257205     0.8801129335
Bq         0.5857128708     0.0257448100     0.2871652460
Bq         0.4843811995     0.0601392056     0.9789375481
Bq         0.6001888239     0.0208313250     0.1883406314
Bq         0.4699052465     0.0650526907     1.0777621627
Bq         0.6146647769     0.0159178399     0.0895160168
Bq         0.5422850117     0.0404852653     0.5836390897
Bq         0.5285211926     0.1452779658     0.6776020995
Bq         0.5574730987     0.1354509956     0.4799528704
Bq         0.5140452395     0.1501914508     0.7764267141
Bq         0.5719490517     0.1305375105     0.3811282558
Bq         0.4995692865     0.1551049359     0.8752513287
Bq         0.5864250048     0.1256240254     0.2823036412
Bq         0.4850933334     0.1600184210     0.9740759433
Bq         0.6009009578     0.1207105403     0.1834790266
Bq         0.4706173804     0.1649319061     1.0729005579
Bq         0.6153769108     0.1157970553     0.0846544120
Bq         0.5429971456     0.1403644807     0.5787774850
Bq         0.5292333265     0.2451571811     0.6727404948
Bq         0.5581852326     0.2353302110     0.4750912656
Bq         0.5147573735     0.2500706662     0.7715651094
Bq         0.5726611856     0.2304167259     0.3762666510
Bq         0.5002814204     0.2549841513     0.8703897240
Bq         0.5871371387     0.2255032408     0.2774420364
Bq         0.4858054674     0.2598976364     0.9692143385
Bq         0.6016130917     0.2205897557     0.1786174219
Bq         0.4713295143     0.2648111215     1.0680389531
Bq         0.6160890448     0.2156762706     0.0797928073
Bq         0.5437092796     0.2402436960     0.5739158802
Bq         0.5299454605     0.3450363965     0.6678788900
Bq         0.5588973665     0.3352094263     0.4702296608
Bq         0.5154695074     0.3499498816     0.7667035046
Bq         0.5733733196     0.3302959413     0.3714050463
Bq         0.5009935544     0.3548633667     0.8655281192
Bq         0.5878492726     0.3253824562     0.2725804317
Bq         0.4865176013     0.3597768518     0.9643527338
Bq         0.6023252257     0.3204689711     0.1737558171
Bq         0.4720416483     0.3646903368     1.0631773484
Bq         0.6168011787     0.3155554860     0.0749312025
Bq         0.5444214135     0.3401229114     0.5690542754
Bq         0.5306575944     0.4449156119     0.6630172852
Bq         0.5596095005     0.4350886417     0.4653680561
Bq         0.5161816414     0.4498290970     0.7618418998
Bq         0.5740854535     0.4301751566     0.3665434415
Bq         0.5017056883     0.4547425820     0.8606665144
Bq         0.5885614066     0.4252616716     0.2677188269
Bq         0.4872297353     0.4596560671     0.9594911290
Bq         0.6030373596     0.4203481865     0.1688942123
Bq         0.4727537822     0.4645695522     1.0583157436
Bq         0.6175133127     0.4154347014     0.0700695977
Bq         0.5451335474     0.4400021268     0.5641926707
Bq         0.5313697283     0.5447948273     0.6581556805
Bq         0.5603216344     0.5349678571     0.4605064513
Bq         0.5168937753     0.5497083123     0.7569802951
Bq         0.5747975875     0.5300543720     0.3616818367
Bq         0.5024178223     0.5546217974     0.8558049097
Bq         0.5892735405     0.5251408869     0.2628572221
Bq         0.4879418692     0.5595352825     0.9546295242
Bq         0.6037494936     0.5202274018     0.1640326076
Bq         0.4734659162     0.5644487676     1.0534541388
Bq         0.6182254466     0.5153139168     0.0652079930
Bq         0.5458456814     0.5398813422     0.5593310659
Bq         0.5320818623     0.6446740426     0.6532940757
Bq         0.5610337684     0.6348470725     0.4556448465
Bq         0.5176059092     0.6495875277     0.7521186903
Bq         0.5755097214     0.6299335874     0.3568202320
Bq         0.5031299562     0.6545010128     0.8509433049
Bq         0.5899856745     0.6250201023     0.2579956174
Bq         0.4886540031     0.6594144979     0.9497679195
Bq         0.6044616275     0.6201066172     0.1591710028
Bq         0.4741780501     0.6643279830     1.0485925341
Bq         0.6189375805     0.6151931321     0.0603463882
Bq         0.5465578153     0.6397605576     0.5544694611
Bq         0.5327939962     0.7445532580     0.6484324709
Bq         0.5617459023     0.7347262878     0.4507832418
Bq         0.5183180432     0.7494667431     0.7472570855
Bq         0.5762218554     0.7298128028     0.3519586272
Bq         0.5038420901     0.7543802282     0.8460817001
Bq         0.5906978084     0.7248993177     0.2531340126
Bq         0.4893661371     0.7592937133     0.9449063147
Bq         0.6051737614     0.7199858326     0.1543093980
Bq         0.4748901840     0.7642071983     1.0437309293
Bq         0.6196497145     0.7150723475     0.0554847834
Bq         0.5472699493     0.7396397729     0.5496078564
Bq         0.5335061302     0.8444324734     0.6435708662
Bq         0.5624580363     0.8346055032     0.4459216370
Bq         0.5190301771     0.8493459585     0.7423954808
Bq         0.5769339893     0.8296920181     0.3470970224
Bq         0.5045542241     0.8542594436     0.8412200954
Bq         0.5914099423     0.8247785331     0.2482724078
Bq         0.4900782710     0.8591729286     0.9400447099
Bq         0.6058858954     0.8198650480     0.1494477933
Bq         0.4756023180     0.8640864137     1.0388693245
Bq         0.6203618484     0.8149515629     0.0506231787
Bq         0.5479820832     0.8395189883     0.5447462516
Bq         0.5342182641     0.9443116888     0.6387092614
Bq         0.5631701702     0.9344847186     0.4410600322
Bq         0.5197423111     0.9492251739     0.7375338760
Bq         0.5776461232     0.9295712335     0.3422354177
Bq         0.5052663580     0.9541386589     0.8363584906
Bq         0.5921220763     0.9246577484     0.2434108031
Bq         0.4907904050     0.9590521440     0.9351831052
Bq         0.6065980293     0.9197442634     0.1445861885
Bq         0.4763144519     0.9639656291     1.0340077198
Bq         0.6210739824     0.9148307783     0.0457615739
Bq         0.5486942172     0.9393982037     0.5398846468
Bq         0.5349303980     1.0441909041     0.6338476567
Bq         0.5638823041     1.0343639340     0.4361984275
Bq         0.5204544450     1.0491043892     0.7326722712
Bq         0.5783582572     1.0294504489     0.3373738129
Bq         0.5059784920     1.0540178743     0.8314968858
Bq         0.5928342102     1.0245369638     0.2385491983
Bq         0.4915025389     1.0589313594     0.9303215004
Bq         0.6073101633     1.0196234787     0.1397245837
Bq         0.4770265859     1.0638448445     1.0291461150
Bq         0.6217861163     1.0147099936     0.0408999691
Bq         0.5494063511     1.0392774191     0.5350230421
Bq         0.5356425320     1.1440701195     0.6289860519
Bq         0.5645944381     1.1342431494     0.4313368227
Bq         0.5211665789     1.1489836046     0.7278106665
Bq         0.5790703911     1.1293296643     0.3325122081
Bq         0.5066906259     1.1538970897     0.8266352811
Bq         0.5935463442     1.1244161792     0.2336875935
Bq         0.4922146729     1.1588105748     0.9254598956
Bq         0.6080222972     1.1195026941     0.1348629790
Bq         0.4777387198     1.1637240599     1.0242845102
Bq         0.6224982503     1.1145892090     0.0360383644
Bq         0.5501184850     1.1391566344     0.5301614373
Bq         0.5363546659     1.2439493349     0.6241244471
Bq         0.5653065720     1.2341223647     0.4264752179
Bq         0.5218787129     1.2488628200     0.7229490617
Bq         0.5797825251     1.2292088797     0.3276506034
Bq         0.5074027598     1.2537763051     0.8217736763
Bq         0.5942584781     1.2242953946     0.2288259888
Bq         0.4929268068     1.2586897901     0.9205982909
Bq         0.6087344312     1.2193819095     0.1300013742
Bq         0.4784508538     1.2636032752     1.0194229055

1
2
3
4
5
6
7
8
9
10
11
12
13
14
15
16
17
18
19
20
21
22
23
24
25
26
27
28
29
30
31
32
33
34
35
36
37
38
39
40
41
42
43
44
45
46
47
48
49
50
51
52
53
54
55
56
57
58
59
60
61
62
63
64
65
66
67
68
69
70
71
72
73
74
75
76
77
78
79
80
81
82
83
84
85
86
87
88
89
90
91
92
93
94
95
96
97
98
99
100
101
102
103
104
105
106
107
108
109
110
111
112
113
114
115
116
117
118
119
120
121
122
123
124
125
126
127
128
129
130
131
132
133
134
135
136
137
138
139
140
141
142
143
144
145
146
147
148
149
150
151
152
153
154
155
156
157
158
159
160
161
162
163
164
165
166
167
168
169
170
171
172
173
174
175
176
177
178
179
180
181
182
183
184
185
186
187
188
189
190
191
192
193
194
195
196
197
198
199
200
201
202
203
204
205
206
207
208
209
210
211
212
213
214
215
216
217
218
219
220
221
222
223
224
225
226
227
228
229
230
231
232
233
234
235
236

