%nproc=8
%mem=1000MB
# rb3lyp/6-311+g** NMR geom=connectivity

Title

0 1
C    -4.0500558   -0.5771862    0.8136712
H    -5.0263804   -1.0082727    1.0024760
C    -3.9381552    0.6617804    0.2400876
H    -4.8252424    1.2338890   -0.0111295
C    -2.6768410    1.2433246    0.0057578
C    -1.4974121    0.5051527    0.2848253
C    -1.6508332   -0.7338728    0.9404026
H    -0.7713646   -1.2730967    1.2633753
C    -2.8898548   -1.2624035    1.1994307
H    -2.9683706   -2.2124563    1.7152676
C    -2.5773185    2.5963696   -0.4192930
H    -3.4870728    3.1412239   -0.6474055
C    -1.3741895    3.2147896   -0.4364030
H    -1.2997315    4.2742019   -0.6578144
C    -0.1719488    2.4994090   -0.1734588
C    -0.2043917    1.1018437    0.0192689
C     1.0513491    3.2042560   -0.0676222
H     1.0427344    4.2819499   -0.1896997
C     2.1942091    2.5487446    0.2579577
H     3.1168527    3.0912848    0.4334727
C     2.2216473    1.1336562    0.2934990
C     1.0486931    0.3945528    0.0302412
C     3.4483363    0.4614633    0.5573939
H     4.3095794    1.0606054    0.8334846
C     3.5427346   -0.8855926    0.4749463
H     4.4731467   -1.3939704    0.7038822
C     2.4490052   -1.6474447   -0.0196319
C     1.2150704   -1.0057258   -0.3013573
C     0.2531113   -1.7434440   -1.0216591
H    -0.6541356   -1.2535051   -1.3462847
C     0.4494193   -3.0628597   -1.3413779
H    -0.3083162   -3.5944309   -1.9054060
C     1.6251726   -3.7207967   -0.9552541
H     1.7670048   -4.7687404   -1.1927019
C     2.6109872   -3.0144177   -0.3183050
H     3.5525612   -3.4902813   -0.0646367
Bq         1.4346852541     2.3426207040     0.7010879249
Bq         1.3044016767     2.3868420698     1.5905094562
Bq         1.4491612072     2.3377072190     0.6022633103
Bq         1.3767814420     2.3622746444     1.0963863833
Bq         1.3658661586     2.8665842063     1.1709029740
Bq         1.3948180647     2.8567572362     0.9732537448
Bq         1.3513902056     2.8714976914     1.2697275886
Bq         1.4092940178     2.8518437511     0.8744291302
Bq         1.3369142525     2.8764111765     1.3685522032
Bq         1.4237699708     2.8469302660     0.7756045157
Bq         1.3224382995     2.8813246616     1.4673768178
Bq         1.4382459238     2.8420167809     0.6767799011
Bq         1.3079623464     2.8862381467     1.5662014323
Bq         1.4527218769     2.8371032959     0.5779552865
Bq         1.3803421117     2.8616707213     1.0720783594
Bq         1.3694268283     3.3659802832     1.1465949502
Bq         1.3983787344     3.3561533131     0.9489457210
Bq         1.3549508753     3.3708937683     1.2454195648
Bq         1.4128546875     3.3512398280     0.8501211064
Bq         1.3404749222     3.3758072534     1.3442441793
Bq         1.4273306405     3.3463263429     0.7512964918
Bq         1.3259989692     3.3807207385     1.4430687939
Bq         1.4418065936     3.3414128578     0.6524718772
Bq         1.3115230162     3.3856342236     1.5418934085
Bq         1.4562825466     3.3364993727     0.5536472627
Bq         1.3839027814     3.3610667981     1.0477703356
Bq         1.3729874980     3.8653763601     1.1222869263
Bq         1.4019394041     3.8555493900     0.9246376972
Bq         1.3585115450     3.8702898452     1.2211115409
Bq         1.4164153572     3.8506359049     0.8258130826
Bq         1.3440355919     3.8752033303     1.3199361555
Bq         1.4308913102     3.8457224198     0.7269884680
Bq         1.3295596389     3.8801168154     1.4187607701
Bq         1.4453672633     3.8408089347     0.6281638534
Bq         1.3150836859     3.8850303004     1.5175853847
Bq         1.4598432163     3.8358954496     0.5293392388
Bq         1.3874634511     3.8604628750     1.0234623118
Bq         1.3765481677     4.3647724370     1.0979789025
Bq         1.4055000738     4.3549454668     0.9003296733
Bq         1.3620722147     4.3696859221     1.1968035171
Bq         1.4199760269     4.3500319818     0.8015050588
Bq         1.3475962617     4.3745994072     1.2956281317
Bq         1.4344519799     4.3451184967     0.7026804442
Bq         1.3331203086     4.3795128922     1.3944527463
Bq         1.4489279330     4.3402050116     0.6038558296
Bq         1.3186443556     4.3844263773     1.4932773608
Bq         1.4634038860     4.3352915265     0.5050312150
Bq         1.3910241208     4.3598589519     0.9991542879
Bq         1.8356620900    -0.6291883319     1.4135264354
Bq         1.8646139961    -0.6390153020     1.2158772062
Bq         1.8211861370    -0.6242748468     1.5123510500
Bq         1.8790899492    -0.6439287871     1.1170525916
Bq         1.8067101839    -0.6193613617     1.6111756646
Bq         1.8935659022    -0.6488422722     1.0182279771
Bq         1.7922342309    -0.6144478766     1.7100002792
Bq         1.9080418552    -0.6537557573     0.9194033625
Bq         1.7777582778    -0.6095343915     1.8088248937
Bq         1.9225178083    -0.6586692423     0.8205787479
Bq         1.8501380431    -0.6341018169     1.3147018208
Bq         1.8392227597    -0.1297922550     1.3892184116
Bq         1.8681746658    -0.1396192251     1.1915691824
Bq         1.8247468067    -0.1248787699     1.4880430262
Bq         1.8826506189    -0.1445327102     1.0927445678
Bq         1.8102708536    -0.1199652848     1.5868676407
Bq         1.8971265719    -0.1494461953     0.9939199532
Bq         1.7957949006    -0.1150517997     1.6856922553
Bq         1.9116025249    -0.1543596804     0.8950953386
Bq         1.7813189476    -0.1101383146     1.7845168699
Bq         1.9260784780    -0.1592731655     0.7962707241
Bq         1.8536987128    -0.1347057400     1.2903937970
Bq         1.8427834294     0.3696038219     1.3649103877
Bq         1.8717353355     0.3597768518     1.1672611586
Bq         1.8283074764     0.3745173070     1.4637350023
Bq         1.8862112886     0.3548633667     1.0684365440
Bq         1.8138315233     0.3794307921     1.5625596169
Bq         1.9006872416     0.3499498816     0.9696119294
Bq         1.7993555703     0.3843442772     1.6613842315
Bq         1.9151631947     0.3450363965     0.8707873148
Bq         1.7848796173     0.3892577622     1.7602088461
Bq         1.9296391477     0.3401229114     0.7719627002
Bq         1.8572593825     0.3646903368     1.2660857731
Bq         1.8463440991     0.8689998988     1.3406023639
Bq         1.8752960052     0.8591729286     1.1429531347
Bq         1.8318681461     0.8739133839     1.4394269785
Bq         1.8897719583     0.8542594436     1.0441285201
Bq         1.8173921931     0.8788268690     1.5382515931
Bq         1.9042479113     0.8493459585     0.9453039056
Bq         1.8029162400     0.8837403541     1.6370762077
Bq         1.9187238644     0.8444324734     0.8464792910
Bq         1.7884402870     0.8886538391     1.7359008222
Bq         1.9331998174     0.8395189883     0.7476546764
Bq         1.8608200522     0.8640864137     1.2417777493
Bq         1.8499047689     1.3683959757     1.3162943401
Bq         1.8788566749     1.3585690055     1.1186451109
Bq         1.8354288158     1.3733094608     1.4151189547
Bq         1.8933326280     1.3536555204     1.0198204963
Bq         1.8209528628     1.3782229459     1.5139435692
Bq         1.9078085810     1.3487420354     0.9209958817
Bq         1.8064769097     1.3831364309     1.6127681838
Bq         1.9222845341     1.3438285503     0.8221712671
Bq         1.7920009567     1.3880499160     1.7115927984
Bq         1.9367604871     1.3389150652     0.7233466526
Bq         1.8643807219     1.3634824906     1.2174697255
Bq         1.8534654386     1.8677920526     1.2919863162
Bq         1.8824173447     1.8579650824     1.0943370871
Bq         1.8389894855     1.8727055377     1.3908109308
Bq         1.8968932977     1.8530515973     0.9955124725
Bq         1.8245135325     1.8776190227     1.4896355454
Bq         1.9113692507     1.8481381122     0.8966878579
Bq         1.8100375794     1.8825325078     1.5884601600
Bq         1.9258452038     1.8432246272     0.7978632433
Bq         1.7955616264     1.8874459929     1.6872847746
Bq         1.9403211568     1.8383111421     0.6990386287
Bq         1.8679413916     1.8628785675     1.1931617017
Bq         1.8570261083     2.3671881295     1.2676782924
Bq         1.8859780144     2.3573611593     1.0700290632
Bq         1.8425501552     2.3721016145     1.3665029070
Bq         1.9004539674     2.3524476742     0.9712044487
Bq         1.8280742022     2.3770150996     1.4653275216
Bq         1.9149299204     2.3475341891     0.8723798341
Bq         1.8135982491     2.3819285847     1.5641521362
Bq         1.9294058735     2.3426207040     0.7735552195
Bq         1.7991222961     2.3868420698     1.6629767507
Bq         1.9438818265     2.3377072190     0.6747306049
Bq         1.8715020613     2.3622746444     1.1688536778
Bq         1.8605867780     2.8665842063     1.2433702686
Bq         1.8895386841     2.8567572362     1.0457210394
Bq         1.8461108249     2.8714976914     1.3421948832
Bq         1.9040146371     2.8518437511     0.9468964248
Bq         1.8316348719     2.8764111765     1.4410194977
Bq         1.9184905902     2.8469302660     0.8480718102
Bq         1.8171589188     2.8813246616     1.5398441123
Bq         1.9329665432     2.8420167809     0.7492471956
Bq         1.8026829658     2.8862381467     1.6386687269
Bq         1.9474424962     2.8371032959     0.6504225811
Bq         1.8750627310     2.8616707213     1.1445456540
Bq         1.8641474477     3.3659802832     1.2190622447
Bq         1.8930993538     3.3561533131     1.0214130156
Bq         1.8496714946     3.3708937683     1.3178868593
Bq         1.9075753068     3.3512398280     0.9225884010
Bq         1.8351955416     3.3758072534     1.4167114739
Bq         1.9220512599     3.3463263429     0.8237637864
Bq         1.8207195886     3.3807207385     1.5155360885
Bq         1.9365272129     3.3414128578     0.7249391718
Bq         1.8062436355     3.3856342236     1.6143607031
Bq         1.9510031660     3.3364993727     0.6261145572
Bq         1.8786234007     3.3610667981     1.1202376302
Bq         1.8677081174     3.8653763601     1.1947542209
Bq         1.8966600235     3.8555493900     0.9971049917
Bq         1.8532321644     3.8702898452     1.2935788355
Bq         1.9111359765     3.8506359049     0.8982803772
Bq         1.8387562113     3.8752033303     1.3924034501
Bq         1.9256119296     3.8457224198     0.7994557626
Bq         1.8242802583     3.8801168154     1.4912280647
Bq         1.9400878826     3.8408089347     0.7006311480
Bq         1.8098043052     3.8850303004     1.5900526792
Bq         1.9545638357     3.8358954496     0.6018065334
Bq         1.8821840704     3.8604628750     1.0959296063
Bq         1.8712687871     4.3647724370     1.1704461971
Bq         1.9002206932     4.3549454668     0.9727969679
Bq         1.8567928341     4.3696859221     1.2692708117
Bq         1.9146966462     4.3500319818     0.8739723533
Bq         1.8423168810     4.3745994072     1.3680954262
Bq         1.9291725993     4.3451184967     0.7751477387
Bq         1.8278409280     4.3795128922     1.4669200408
Bq         1.9436485523     4.3402050116     0.6763231242
Bq         1.8133649749     4.3844263773     1.5657446554
Bq         1.9581245054     4.3352915265     0.5774985096
Bq         1.8857447401     4.3598589519     1.0716215825
Bq         2.3303827094    -0.6291883319     1.4859937300
Bq         2.3593346155    -0.6390153020     1.2883445008
Bq         2.3159067563    -0.6242748468     1.5848183446
Bq         2.3738105685    -0.6439287871     1.1895198862
Bq         2.3014308033    -0.6193613617     1.6836429591
Bq         2.3882865216    -0.6488422722     1.0906952716
Bq         2.2869548502    -0.6144478766     1.7824675737
Bq         2.4027624746    -0.6537557573     0.9918706570
Bq         2.2724788972    -0.6095343915     1.8812921883
Bq         2.4172384276    -0.6586692423     0.8930460425
Bq         2.3448586624    -0.6341018169     1.3871691154
Bq         2.3339433791    -0.1297922550     1.4616857061
Bq         2.3628952852    -0.1396192251     1.2640364770
Bq         2.3194674260    -0.1248787699     1.5605103207
Bq         2.3773712382    -0.1445327102     1.1652118624
Bq         2.3049914730    -0.1199652848     1.6593349353
Bq         2.3918471913    -0.1494461953     1.0663872478
Bq         2.2905155200    -0.1150517997     1.7581595499
Bq         2.4063231443    -0.1543596804     0.9675626332
Bq         2.2760395669    -0.1101383146     1.8569841645
Bq         2.4207990974    -0.1592731655     0.8687380186
Bq         2.3484193321    -0.1347057400     1.3628610916
Bq         2.3375040488     0.3696038219     1.4373776823
Bq         2.3664559549     0.3597768518     1.2397284531
Bq         2.3230280958     0.3745173070     1.5362022969
Bq         2.3809319079     0.3548633667     1.1409038386
Bq         2.3085521427     0.3794307921     1.6350269115
Bq         2.3954078610     0.3499498816     1.0420792240
Bq         2.2940761897     0.3843442772     1.7338515261
Bq         2.4098838140     0.3450363965     0.9432546094
Bq         2.2796002366     0.3892577622     1.8326761406

1
2
3
4
5
6
7
8
9
10
11
12
13
14
15
16
17
18
19
20
21
22
23
24
25
26
27
28
29
30
31
32
33
34
35
36
37
38
39
40
41
42
43
44
45
46
47
48
49
50
51
52
53
54
55
56
57
58
59
60
61
62
63
64
65
66
67
68
69
70
71
72
73
74
75
76
77
78
79
80
81
82
83
84
85
86
87
88
89
90
91
92
93
94
95
96
97
98
99
100
101
102
103
104
105
106
107
108
109
110
111
112
113
114
115
116
117
118
119
120
121
122
123
124
125
126
127
128
129
130
131
132
133
134
135
136
137
138
139
140
141
142
143
144
145
146
147
148
149
150
151
152
153
154
155
156
157
158
159
160
161
162
163
164
165
166
167
168
169
170
171
172
173
174
175
176
177
178
179
180
181
182
183
184
185
186
187
188
189
190
191
192
193
194
195
196
197
198
199
200
201
202
203
204
205
206
207
208
209
210
211
212
213
214
215
216
217
218
219
220
221
222
223
224
225
226
227
228
229
230
231
232
233
234
235
236

