%nproc=8
%mem=1000MB
# rb3lyp/6-311+g** NMR geom=connectivity

Title

0 1
C    -4.0500558   -0.5771862    0.8136712
H    -5.0263804   -1.0082727    1.0024760
C    -3.9381552    0.6617804    0.2400876
H    -4.8252424    1.2338890   -0.0111295
C    -2.6768410    1.2433246    0.0057578
C    -1.4974121    0.5051527    0.2848253
C    -1.6508332   -0.7338728    0.9404026
H    -0.7713646   -1.2730967    1.2633753
C    -2.8898548   -1.2624035    1.1994307
H    -2.9683706   -2.2124563    1.7152676
C    -2.5773185    2.5963696   -0.4192930
H    -3.4870728    3.1412239   -0.6474055
C    -1.3741895    3.2147896   -0.4364030
H    -1.2997315    4.2742019   -0.6578144
C    -0.1719488    2.4994090   -0.1734588
C    -0.2043917    1.1018437    0.0192689
C     1.0513491    3.2042560   -0.0676222
H     1.0427344    4.2819499   -0.1896997
C     2.1942091    2.5487446    0.2579577
H     3.1168527    3.0912848    0.4334727
C     2.2216473    1.1336562    0.2934990
C     1.0486931    0.3945528    0.0302412
C     3.4483363    0.4614633    0.5573939
H     4.3095794    1.0606054    0.8334846
C     3.5427346   -0.8855926    0.4749463
H     4.4731467   -1.3939704    0.7038822
C     2.4490052   -1.6474447   -0.0196319
C     1.2150704   -1.0057258   -0.3013573
C     0.2531113   -1.7434440   -1.0216591
H    -0.6541356   -1.2535051   -1.3462847
C     0.4494193   -3.0628597   -1.3413779
H    -0.3083162   -3.5944309   -1.9054060
C     1.6251726   -3.7207967   -0.9552541
H     1.7670048   -4.7687404   -1.1927019
C     2.6109872   -3.0144177   -0.3183050
H     3.5525612   -3.4902813   -0.0646367
Bq        -1.0787850321     2.8567572362     0.6109172720
Bq        -1.1222128912     2.8714976914     0.9073911157
Bq        -1.0643090790     2.8518437511     0.5120926574
Bq        -1.1366888443     2.8764111765     1.0062157303
Bq        -1.0498331260     2.8469302660     0.4132680428
Bq        -1.1511647973     2.8813246616     1.1050403449
Bq        -1.0353571729     2.8420167809     0.3144434282
Bq        -1.1656407503     2.8862381467     1.2038649595
Bq        -1.0208812199     2.8371032959     0.2156188136
Bq        -1.0932609851     2.8616707213     0.7097418866
Bq        -1.1041762685     3.3659802832     0.7842584773
Bq        -1.0752243624     3.3561533131     0.5866092482
Bq        -1.1186522215     3.3708937683     0.8830830919
Bq        -1.0607484093     3.3512398280     0.4877846336
Bq        -1.1331281745     3.3758072534     0.9819077065
Bq        -1.0462724563     3.3463263429     0.3889600190
Bq        -1.1476041276     3.3807207385     1.0807323211
Bq        -1.0317965032     3.3414128578     0.2901354044
Bq        -1.1620800806     3.3856342236     1.1795569357
Bq        -1.0173205502     3.3364993727     0.1913107898
Bq        -1.0897003154     3.3610667981     0.6854338627
Bq        -1.1006155988     3.8653763601     0.7599504535
Bq        -1.0716636927     3.8555493900     0.5623012243
Bq        -1.1150915518     3.8702898452     0.8587750681
Bq        -1.0571877396     3.8506359049     0.4634766097
Bq        -1.1295675048     3.8752033303     0.9575996827
Bq        -1.0427117866     3.8457224198     0.3646519952
Bq        -1.1440434579     3.8801168154     1.0564242972
Bq        -1.0282358335     3.8408089347     0.2658273806
Bq        -1.1585194109     3.8850303004     1.1552489118
Bq        -1.0137598805     3.8358954496     0.1670027660
Bq        -1.0861396457     3.8604628750     0.6611258389
Bq        -1.0970549290     4.3647724370     0.7356424297
Bq        -1.0681030230     4.3549454668     0.5379932005
Bq        -1.1115308821     4.3696859221     0.8344670442
Bq        -1.0536270699     4.3500319818     0.4391685859
Bq        -1.1260068351     4.3745994072     0.9332916588
Bq        -1.0391511169     4.3451184967     0.3403439713
Bq        -1.1404827882     4.3795128922     1.0321162734
Bq        -1.0246751638     4.3402050116     0.2415193567
Bq        -1.1549587412     4.3844263773     1.1309408880
Bq        -1.0101992108     4.3352915265     0.1426947421
Bq        -1.0825789760     4.3598589519     0.6368178151
Bq        -0.6379410068    -0.6291883319     1.0511899626
Bq        -0.6089891007    -0.6390153020     0.8535407334
Bq        -0.6524169598    -0.6242748468     1.1500145771
Bq        -0.5945131476    -0.6439287871     0.7547161188
Bq        -0.6668929129    -0.6193613617     1.2488391917
Bq        -0.5800371946    -0.6488422722     0.6558915042
Bq        -0.6813688659    -0.6144478766     1.3476638063
Bq        -0.5655612415    -0.6537557573     0.5570668896
Bq        -0.6958448189    -0.6095343915     1.4464884209
Bq        -0.5510852885    -0.6586692423     0.4582422750
Bq        -0.6234650537    -0.6341018169     0.9523653480
Bq        -0.6343803371    -0.1297922550     1.0268819387
Bq        -0.6054284310    -0.1396192251     0.8292327095
Bq        -0.6488562901    -0.1248787699     1.1257065533
Bq        -0.5909524779    -0.1445327102     0.7304080950
Bq        -0.6633322431    -0.1199652848     1.2245311679
Bq        -0.5764765249    -0.1494461953     0.6315834804
Bq        -0.6778081962    -0.1150517997     1.3233557825
Bq        -0.5620005718    -0.1543596804     0.5327588658
Bq        -0.6922841492    -0.1101383146     1.4221803971
Bq        -0.5475246188    -0.1592731655     0.4339342512
Bq        -0.6199043840    -0.1347057400     0.9280573241
Bq        -0.6308196674     0.3696038219     1.0025739149
Bq        -0.6018677613     0.3597768518     0.8049246857
Bq        -0.6452956204     0.3745173070     1.1013985295
Bq        -0.5873918082     0.3548633667     0.7061000711
Bq        -0.6597715734     0.3794307921     1.2002231441
Bq        -0.5729158552     0.3499498816     0.6072754565
Bq        -0.6742475265     0.3843442772     1.2990477586
Bq        -0.5584399021     0.3450363965     0.5084508420
Bq        -0.6887234795     0.3892577622     1.3978723732
Bq        -0.5439639491     0.3401229114     0.4096262274
Bq        -0.6163437143     0.3646903368     0.9037493003
Bq        -0.6272589976     0.8689998988     0.9782658911
Bq        -0.5983070916     0.8591729286     0.7806166619
Bq        -0.6417349507     0.8739133839     1.0770905056
Bq        -0.5838311385     0.8542594436     0.6817920473
Bq        -0.6562109037     0.8788268690     1.1759151202
Bq        -0.5693551855     0.8493459585     0.5829674327
Bq        -0.6706868568     0.8837403541     1.2747397348
Bq        -0.5548792324     0.8444324734     0.4841428181
Bq        -0.6851628098     0.8886538391     1.3735643494
Bq        -0.5404032794     0.8395189883     0.3853182035
Bq        -0.6127830446     0.8640864137     0.8794412765
Bq        -0.6236983279     1.3683959757     0.9539578672
Bq        -0.5947464218     1.3585690055     0.7563086381
Bq        -0.6381742810     1.3733094608     1.0527824818
Bq        -0.5802704688     1.3536555204     0.6574840235
Bq        -0.6526502340     1.3782229459     1.1516070964
Bq        -0.5657945158     1.3487420354     0.5586594089
Bq        -0.6671261871     1.3831364309     1.2504317110
Bq        -0.5513185627     1.3438285503     0.4598347943
Bq        -0.6816021401     1.3880499160     1.3492563256
Bq        -0.5368426097     1.3389150652     0.3610101797
Bq        -0.6092223749     1.3634824906     0.8551332526
Bq        -0.6201376582     1.8677920526     0.9296498434
Bq        -0.5911857521     1.8579650824     0.7320006142
Bq        -0.6346136113     1.8727055377     1.0284744580
Bq        -0.5767097991     1.8530515973     0.6331759996
Bq        -0.6490895643     1.8776190227     1.1272990726
Bq        -0.5622338460     1.8481381122     0.5343513850
Bq        -0.6635655174     1.8825325078     1.2261236871
Bq        -0.5477578930     1.8432246272     0.4355267705
Bq        -0.6780414704     1.8874459929     1.3249483017
Bq        -0.5332819400     1.8383111421     0.3367021559
Bq        -0.6056617052     1.8628785675     0.8308252288
Bq        -0.6165769885     2.3671881295     0.9053418196
Bq        -0.5876250824     2.3573611593     0.7076925904
Bq        -0.6310529416     2.3721016145     1.0041664341
Bq        -0.5731491294     2.3524476742     0.6088679758
Bq        -0.6455288946     2.3770150996     1.1029910487
Bq        -0.5586731763     2.3475341891     0.5100433612
Bq        -0.6600048477     2.3819285847     1.2018156633
Bq        -0.5441972233     2.3426207040     0.4112187466
Bq        -0.6744808007     2.3868420698     1.3006402779
Bq        -0.5297212703     2.3377072190     0.3123941320
Bq        -0.6021010355     2.3622746444     0.8065172050
Bq        -0.6130163188     2.8665842063     0.8810337957
Bq        -0.5840644127     2.8567572362     0.6833845666
Bq        -0.6274922719     2.8714976914     0.9798584103
Bq        -0.5695884597     2.8518437511     0.5845599520
Bq        -0.6419682249     2.8764111765     1.0786830249
Bq        -0.5551125066     2.8469302660     0.4857353374
Bq        -0.6564441779     2.8813246616     1.1775076395
Bq        -0.5406365536     2.8420167809     0.3869107228
Bq        -0.6709201310     2.8862381467     1.2763322541
Bq        -0.5261606005     2.8371032959     0.2880861082
Bq        -0.5985403658     2.8616707213     0.7822091811
Bq        -0.6094556491     3.3659802832     0.8567257719
Bq        -0.5805037430     3.3561533131     0.6590765427
Bq        -0.6239316021     3.3708937683     0.9555503865
Bq        -0.5660277900     3.3512398280     0.5602519281
Bq        -0.6384075552     3.3758072534     1.0543750011
Bq        -0.5515518369     3.3463263429     0.4614273136
Bq        -0.6528835082     3.3807207385     1.1531996156
Bq        -0.5370758839     3.3414128578     0.3626026990
Bq        -0.6673594613     3.3856342236     1.2520242302
Bq        -0.5225999308     3.3364993727     0.2637780844
Bq        -0.5949796961     3.3610667981     0.7579011573
Bq        -0.6058949794     3.8653763601     0.8324177481
Bq        -0.5769430733     3.8555493900     0.6347685189
Bq        -0.6203709324     3.8702898452     0.9312423626
Bq        -0.5624671203     3.8506359049     0.5359439043
Bq        -0.6348468855     3.8752033303     1.0300669772
Bq        -0.5479911672     3.8457224198     0.4371192897
Bq        -0.6493228385     3.8801168154     1.1288915918
Bq        -0.5335152142     3.8408089347     0.3382946751
Bq        -0.6637987916     3.8850303004     1.2277162064
Bq        -0.5190392611     3.8358954496     0.2394700606
Bq        -0.5914190263     3.8604628750     0.7335931335
Bq        -0.6023343097     4.3647724370     0.8081097242
Bq        -0.5733824036     4.3549454668     0.6104604951
Bq        -0.6168102627     4.3696859221     0.9069343388
Bq        -0.5589064506     4.3500319818     0.5116358805
Bq        -0.6312862158     4.3745994072     1.0057589534
Bq        -0.5444304975     4.3451184967     0.4128112659
Bq        -0.6457621688     4.3795128922     1.1045835680
Bq        -0.5299545445     4.3402050116     0.3139866513
Bq        -0.6602381219     4.3844263773     1.2034081826
Bq        -0.5154785914     4.3352915265     0.2151620367
Bq        -0.5878583566     4.3598589519     0.7092851096
Bq        -0.1432203874    -0.6291883319     1.1236572571
Bq        -0.1142684813    -0.6390153020     0.9260080280
Bq        -0.1576963405    -0.6242748468     1.2224818717
Bq        -0.0997925283    -0.6439287871     0.8271834134
Bq        -0.1721722935    -0.6193613617     1.3213064863
Bq        -0.0853165752    -0.6488422722     0.7283587988
Bq        -0.1866482465    -0.6144478766     1.4201311009
Bq        -0.0708406222    -0.6537557573     0.6295341842
Bq        -0.2011241996    -0.6095343915     1.5189557155
Bq        -0.0563646691    -0.6586692423     0.5307095696
Bq        -0.1287444344    -0.6341018169     1.0248326425
Bq        -0.1396597177    -0.1297922550     1.0993492333
Bq        -0.1107078116    -0.1396192251     0.9017000041
Bq        -0.1541356707    -0.1248787699     1.1981738479
Bq        -0.0962318586    -0.1445327102     0.8028753895
Bq        -0.1686116238    -0.1199652848     1.2969984625
Bq        -0.0817559055    -0.1494461953     0.7040507749
Bq        -0.1830875768    -0.1150517997     1.3958230770
Bq        -0.0672799525    -0.1543596804     0.6052261604
Bq        -0.1975635299    -0.1101383146     1.4946476916
Bq        -0.0528039994    -0.1592731655     0.5064015458
Bq        -0.1251837647    -0.1347057400     1.0005246187
Bq        -0.1360990480     0.3696038219     1.0750412095
Bq        -0.1071471419     0.3597768518     0.8773919803
Bq        -0.1505750010     0.3745173070     1.1738658240
Bq        -0.0926711889     0.3548633667     0.7785673657
Bq        -0.1650509541     0.3794307921     1.2726904386
Bq        -0.0781952358     0.3499498816     0.6797427511
Bq        -0.1795269071     0.3843442772     1.3715150532
Bq        -0.0637192828     0.3450363965     0.5809181365
Bq        -0.1940028602     0.3892577622     1.4703396678
Bq        -0.0492433297     0.3401229114     0.4820935219
Bq        -0.1216230950     0.3646903368     0.9762165949
Bq        -0.1325383783     0.8689998988     1.0507331856
Bq        -0.1035864722     0.8591729286     0.8530839565
Bq        -0.1470143313     0.8739133839     1.1495578002

1
2
3
4
5
6
7
8
9
10
11
12
13
14
15
16
17
18
19
20
21
22
23
24
25
26
27
28
29
30
31
32
33
34
35
36
37
38
39
40
41
42
43
44
45
46
47
48
49
50
51
52
53
54
55
56
57
58
59
60
61
62
63
64
65
66
67
68
69
70
71
72
73
74
75
76
77
78
79
80
81
82
83
84
85
86
87
88
89
90
91
92
93
94
95
96
97
98
99
100
101
102
103
104
105
106
107
108
109
110
111
112
113
114
115
116
117
118
119
120
121
122
123
124
125
126
127
128
129
130
131
132
133
134
135
136
137
138
139
140
141
142
143
144
145
146
147
148
149
150
151
152
153
154
155
156
157
158
159
160
161
162
163
164
165
166
167
168
169
170
171
172
173
174
175
176
177
178
179
180
181
182
183
184
185
186
187
188
189
190
191
192
193
194
195
196
197
198
199
200
201
202
203
204
205
206
207
208
209
210
211
212
213
214
215
216
217
218
219
220
221
222
223
224
225
226
227
228
229
230
231
232
233
234
235
236

