%nproc=8
%mem=1000MB
# rb3lyp/6-311+g** NMR geom=connectivity

Title

0 1
C    -4.0500558   -0.5771862    0.8136712
H    -5.0263804   -1.0082727    1.0024760
C    -3.9381552    0.6617804    0.2400876
H    -4.8252424    1.2338890   -0.0111295
C    -2.6768410    1.2433246    0.0057578
C    -1.4974121    0.5051527    0.2848253
C    -1.6508332   -0.7338728    0.9404026
H    -0.7713646   -1.2730967    1.2633753
C    -2.8898548   -1.2624035    1.1994307
H    -2.9683706   -2.2124563    1.7152676
C    -2.5773185    2.5963696   -0.4192930
H    -3.4870728    3.1412239   -0.6474055
C    -1.3741895    3.2147896   -0.4364030
H    -1.2997315    4.2742019   -0.6578144
C    -0.1719488    2.4994090   -0.1734588
C    -0.2043917    1.1018437    0.0192689
C     1.0513491    3.2042560   -0.0676222
H     1.0427344    4.2819499   -0.1896997
C     2.1942091    2.5487446    0.2579577
H     3.1168527    3.0912848    0.4334727
C     2.2216473    1.1336562    0.2934990
C     1.0486931    0.3945528    0.0302412
C     3.4483363    0.4614633    0.5573939
H     4.3095794    1.0606054    0.8334846
C     3.5427346   -0.8855926    0.4749463
H     4.4731467   -1.3939704    0.7038822
C     2.4490052   -1.6474447   -0.0196319
C     1.2150704   -1.0057258   -0.3013573
C     0.2531113   -1.7434440   -1.0216591
H    -0.6541356   -1.2535051   -1.3462847
C     0.4494193   -3.0628597   -1.3413779
H    -0.3083162   -3.5944309   -1.9054060
C     1.6251726   -3.7207967   -0.9552541
H     1.7670048   -4.7687404   -1.1927019
C     2.6109872   -3.0144177   -0.3183050
H     3.5525612   -3.4902813   -0.0646367
Bq         3.8776957133     2.0598813016     2.0864158398
Bq         3.9290534420     2.0883366196     1.8952282916
Bq         3.8520168490     2.0456536426     2.1820096139
Bq         3.9547323063     2.1025642787     1.7996345175
Bq         3.8263379847     2.0314259835     2.2776033880
Bq         3.9804111706     2.1167919377     1.7040407434
Bq         3.8006591204     2.0171983245     2.3731971621
Bq         4.0060900349     2.1310195967     1.6084469693
Bq         3.7749802560     2.0029706655     2.4687909362
Bq         4.0317688993     2.1452472558     1.5128531952
Bq         3.9033745777     2.0741089606     1.9908220657
Bq         4.5451294903    -2.8892534002     1.5291027708
Bq         4.5964872190    -2.8607980821     1.3379152226
Bq         4.5194506260    -2.9034810592     1.6246965449
Bq         4.6221660833    -2.8465704231     1.2423214485
Bq         4.4937717617    -2.9177087183     1.7202903190
Bq         4.6478449476    -2.8323427641     1.1467276744
Bq         4.4680928974    -2.9319363773     1.8158840931
Bq         4.6735238119    -2.8181151051     1.0511339003
Bq         4.4424140330    -2.9461640363     1.9114778672
Bq         4.6992026763    -2.8038874460     0.9555401262
Bq         4.5708083547    -2.8750257412     1.4335089967
Bq         4.5266742377    -2.3943399300     1.5978054686
Bq         4.5780319663    -2.3658846120     1.4066179204
Bq         4.5009953733    -2.4085675891     1.6933992427
Bq         4.6037108306    -2.3516569529     1.3110241463
Bq         4.4753165090    -2.4227952481     1.7889930168
Bq         4.6293896949    -2.3374292939     1.2154303722
Bq         4.4496376447    -2.4370229071     1.8845867909
Bq         4.6550685593    -2.3232016349     1.1198365981
Bq         4.4239587804    -2.4512505661     1.9801805650
Bq         4.6807474236    -2.3089739759     1.0242428240
Bq         4.5523531020    -2.3801122710     1.5022116945
Bq         4.5082189850    -1.8994264598     1.6665081664
Bq         4.5595767136    -1.8709711418     1.4753206182
Bq         4.4825401207    -1.9136541189     1.7621019405
Bq         4.5852555779    -1.8567434828     1.3797268441
Bq         4.4568612563    -1.9278817779     1.8576957146
Bq         4.6109344423    -1.8425158237     1.2841330700
Bq         4.4311823920    -1.9421094369     1.9532894887
Bq         4.6366133066    -1.8282881647     1.1885392959
Bq         4.4055035277    -1.9563370960     2.0488832628
Bq         4.6622921709    -1.8140605057     1.0929455218
Bq         4.5338978493    -1.8851988008     1.5709143923
Bq         4.4897637323    -1.4045129897     1.7352108642
Bq         4.5411214609    -1.3760576716     1.5440233160
Bq         4.4640848680    -1.4187406487     1.8308046383
Bq         4.5668003253    -1.3618300126     1.4484295419
Bq         4.4384060037    -1.4329683077     1.9263984124
Bq         4.5924791896    -1.3476023536     1.3528357678
Bq         4.4127271393    -1.4471959668     2.0219921865
Bq         4.6181580539    -1.3333746945     1.2572419937
Bq         4.3870482750    -1.4614236258     2.1175859606
Bq         4.6438369182    -1.3191470355     1.1616482196
Bq         4.5154425966    -1.3902853306     1.6396170901
Bq         4.4713084796    -0.9095995195     1.8039135620
Bq         4.5226662083    -0.8811442014     1.6127260138
Bq         4.4456296153    -0.9238271785     1.8995073361
Bq         4.5483450726    -0.8669165424     1.5171322397
Bq         4.4199507510    -0.9380548375     1.9951011102
Bq         4.5740239369    -0.8526888834     1.4215384656
Bq         4.3942718867    -0.9522824966     2.0906948843
Bq         4.5997028012    -0.8384612243     1.3259446915
Bq         4.3685930223    -0.9665101556     2.1862886584
Bq         4.6253816656    -0.8242335653     1.2303509174
Bq         4.4969873439    -0.8953718605     1.7083197879
Bq         4.4528532269    -0.4146860493     1.8726162598
Bq         4.5042109556    -0.3862307313     1.6814287116
Bq         4.4271743626    -0.4289137083     1.9682100339
Bq         4.5298898199    -0.3720030722     1.5858349375
Bq         4.4014954983    -0.4431413674     2.0638038080
Bq         4.5555686842    -0.3577754132     1.4902411634
Bq         4.3758166340    -0.4573690264     2.1593975821
Bq         4.5812475486    -0.3435477542     1.3946473893
Bq         4.3501377697    -0.4715966854     2.2549913561
Bq         4.6069264129    -0.3293200951     1.2990536152
Bq         4.4785320913    -0.4004583903     1.7770224857
Bq         4.4343979743     0.0802274209     1.9413189576
Bq         4.4857557029     0.1086827389     1.7501314094
Bq         4.4087191099     0.0659997618     2.0369127317
Bq         4.5114345672     0.1229103980     1.6545376353
Bq         4.3830402456     0.0517721028     2.1325065058
Bq         4.5371134316     0.1371380570     1.5589438612
Bq         4.3573613813     0.0375444438     2.2281002798
Bq         4.5627922959     0.1513657160     1.4633500871
Bq         4.3316825170     0.0233167848     2.3236940539
Bq         4.5884711602     0.1655933750     1.3677563130
Bq         4.4600768386     0.0944550799     1.8457251835
Bq         4.4159427216     0.5751408910     2.0100216554
Bq         4.4673004502     0.6035962091     1.8188341072
Bq         4.3902638573     0.5609132320     2.1056154295
Bq         4.4929793146     0.6178238681     1.7232403331
Bq         4.3645849929     0.5466855730     2.2012092035
Bq         4.5186581789     0.6320515272     1.6276465590
Bq         4.3389061286     0.5324579140     2.2968029776
Bq         4.5443370432     0.6462791862     1.5320527849
Bq         4.3132272643     0.5182302549     2.3923967517
Bq         4.5700159075     0.6605068452     1.4364590108
Bq         4.4416215859     0.5893685501     1.9144278813
Bq         4.3974874689     1.0700543612     2.0787243532
Bq         4.4488451976     1.0985096793     1.8875368050
Bq         4.3718086046     1.0558267022     2.1743181272
Bq         4.4745240619     1.1127373383     1.7919430309
Bq         4.3461297403     1.0415990432     2.2699119013
Bq         4.5002029262     1.1269649973     1.6963492568
Bq         4.3204508760     1.0273713841     2.3655056754
Bq         4.5258817905     1.1411926564     1.6007554827
Bq         4.2947720116     1.0131437251     2.4610994495
Bq         4.5515606549     1.1554203154     1.5051617086
Bq         4.4231663332     1.0842820203     1.9831305791
Bq         4.3790322162     1.5649678314     2.1474270509
Bq         4.4303899449     1.5934231495     1.9562395028
Bq         4.3533533519     1.5507401724     2.2430208250
Bq         4.4560688092     1.6076508085     1.8606457287
Bq         4.3276744876     1.5365125133     2.3386145991
Bq         4.4817476735     1.6218784675     1.7650519546
Bq         4.3019956233     1.5222848543     2.4342083732
Bq         4.5074265379     1.6361061265     1.6694581805
Bq         4.2763167590     1.5080571953     2.5298021473
Bq         4.5331054022     1.6503337856     1.5738644064
Bq         4.4047110806     1.5791954904     2.0518332768
Bq         4.3605769636     2.0598813016     2.2161297487
Bq         4.4119346922     2.0883366196     2.0249422005
Bq         4.3348980992     2.0456536426     2.3117235228
Bq         4.4376135565     2.1025642787     1.9293484265
Bq         4.3092192349     2.0314259835     2.4073172969
Bq         4.4632924209     2.1167919377     1.8337546524
Bq         4.2835403706     2.0171983245     2.5029110710
Bq         4.4889712852     2.1310195967     1.7381608783
Bq         4.2578615063     2.0029706655     2.5985048451
Bq         4.5146501495     2.1452472558     1.6425671042
Bq         4.3862558279     2.0741089606     2.1205359746

1
2
3
4
5
6
7
8
9
10
11
12
13
14
15
16
17
18
19
20
21
22
23
24
25
26
27
28
29
30
31
32
33
34
35
36
37
38
39
40
41
42
43
44
45
46
47
48
49
50
51
52
53
54
55
56
57
58
59
60
61
62
63
64
65
66
67
68
69
70
71
72
73
74
75
76
77
78
79
80
81
82
83
84
85
86
87
88
89
90
91
92
93
94
95
96
97
98
99
100
101
102
103
104
105
106
107
108
109
110
111
112
113
114
115
116
117
118
119
120
121
122
123
124
125
126
127
128
129
130
131
132
133
134
135
136
137
138
139
140
141
142
143
144
145
146
147
148
149
150
151
152
153
154
155
156
157
158
159
160
161
162
163
164
165
166
167
168

