%nproc=8
%mem=1000MB
# rb3lyp/6-311+g** NMR geom=connectivity

Title

0 1
C    -4.0500558   -0.5771862    0.8136712
H    -5.0263804   -1.0082727    1.0024760
C    -3.9381552    0.6617804    0.2400876
H    -4.8252424    1.2338890   -0.0111295
C    -2.6768410    1.2433246    0.0057578
C    -1.4974121    0.5051527    0.2848253
C    -1.6508332   -0.7338728    0.9404026
H    -0.7713646   -1.2730967    1.2633753
C    -2.8898548   -1.2624035    1.1994307
H    -2.9683706   -2.2124563    1.7152676
C    -2.5773185    2.5963696   -0.4192930
H    -3.4870728    3.1412239   -0.6474055
C    -1.3741895    3.2147896   -0.4364030
H    -1.2997315    4.2742019   -0.6578144
C    -0.1719488    2.4994090   -0.1734588
C    -0.2043917    1.1018437    0.0192689
C     1.0513491    3.2042560   -0.0676222
H     1.0427344    4.2819499   -0.1896997
C     2.1942091    2.5487446    0.2579577
H     3.1168527    3.0912848    0.4334727
C     2.2216473    1.1336562    0.2934990
C     1.0486931    0.3945528    0.0302412
C     3.4483363    0.4614633    0.5573939
H     4.3095794    1.0606054    0.8334846
C     3.5427346   -0.8855926    0.4749463
H     4.4731467   -1.3939704    0.7038822
C     2.4490052   -1.6474447   -0.0196319
C     1.2150704   -1.0057258   -0.3013573
C     0.2531113   -1.7434440   -1.0216591
H    -0.6541356   -1.2535051   -1.3462847
C     0.4494193   -3.0628597   -1.3413779
H    -0.3083162   -3.5944309   -1.9054060
C     1.6251726   -3.7207967   -0.9552541
H     1.7670048   -4.7687404   -1.1927019
C     2.6109872   -3.0144177   -0.3183050
H     3.5525612   -3.4902813   -0.0646367
Bq         3.6965296704    -1.8140605057     0.8335177039
Bq         3.5681353488    -1.8851988008     1.3114865744
Bq         3.5240012318    -1.4045129897     1.4757830463
Bq         3.5753589605    -1.3760576716     1.2845954981
Bq         3.4983223675    -1.4187406487     1.5713768204
Bq         3.6010378248    -1.3618300126     1.1890017240
Bq         3.4726435032    -1.4329683077     1.6669705945
Bq         3.6267166891    -1.3476023536     1.0934079499
Bq         3.4469646389    -1.4471959668     1.7625643686
Bq         3.6523955534    -1.3333746945     0.9978141758
Bq         3.4212857745    -1.4614236258     1.8581581427
Bq         3.6780744178    -1.3191470355     0.9022204017
Bq         3.5496800962    -1.3902853306     1.3801892722
Bq         3.5055459792    -0.9095995195     1.5444857441
Bq         3.5569037078    -0.8811442014     1.3532981959
Bq         3.4798671148    -0.9238271785     1.6400795182
Bq         3.5825825721    -0.8669165424     1.2577044218
Bq         3.4541882505    -0.9380548375     1.7356732923
Bq         3.6082614365    -0.8526888834     1.1621106477
Bq         3.4285093862    -0.9522824966     1.8312670664
Bq         3.6339403008    -0.8384612243     1.0665168736
Bq         3.4028305219    -0.9665101556     1.9268608405
Bq         3.6596191651    -0.8242335653     0.9709230995
Bq         3.5312248435    -0.8953718605     1.4488919700
Bq         3.4870907265    -0.4146860493     1.6131884419
Bq         3.5384484551    -0.3862307313     1.4220008937
Bq         3.4614118622    -0.4289137083     1.7087822160
Bq         3.5641273195    -0.3720030722     1.3264071196
Bq         3.4357329978    -0.4431413674     1.8043759901
Bq         3.5898061838    -0.3577754132     1.2308133455
Bq         3.4100541335    -0.4573690264     1.8999697642
Bq         3.6154850481    -0.3435477542     1.1352195714
Bq         3.3843752692    -0.4715966854     1.9955635383
Bq         3.6411639124    -0.3293200951     1.0396257973
Bq         3.5127695908    -0.4004583903     1.5175946678
Bq         3.4686354738     0.0802274209     1.6818911397
Bq         3.5199932025     0.1086827389     1.4907035915
Bq         3.4429566095     0.0659997618     1.7774849138
Bq         3.5456720668     0.1229103980     1.3951098174
Bq         3.4172777452     0.0517721028     1.8730786879
Bq         3.5713509311     0.1371380570     1.2995160433
Bq         3.3915988808     0.0375444438     1.9686724620
Bq         3.5970297954     0.1513657160     1.2039222692
Bq         3.3659200165     0.0233167848     2.0642662361
Bq         3.6227086597     0.1655933750     1.1083284951
Bq         3.4943143381     0.0944550799     1.5862973656
Bq         3.4501802211     0.5751408910     1.7505938375
Bq         3.5015379498     0.6035962091     1.5594062893
Bq         3.4245013568     0.5609132320     1.8461876116
Bq         3.5272168141     0.6178238681     1.4638125152
Bq         3.3988224925     0.5466855730     1.9417813857
Bq         3.5528956784     0.6320515272     1.3682187411
Bq         3.3731436282     0.5324579140     2.0373751598
Bq         3.5785745427     0.6462791862     1.2726249670
Bq         3.3474647638     0.5182302549     2.1329689338
Bq         3.6042534071     0.6605068452     1.1770311929
Bq         3.4758590855     0.5893685501     1.6550000634
Bq         3.4317249685     1.0700543612     1.8192965353
Bq         3.4830826971     1.0985096793     1.6281089871
Bq         3.4060461041     1.0558267022     1.9148903094
Bq         3.5087615614     1.1127373383     1.5325152130
Bq         3.3803672398     1.0415990432     2.0104840834
Bq         3.5344404257     1.1269649973     1.4369214389
Bq         3.3546883755     1.0273713841     2.1060778575
Bq         3.5601192901     1.1411926564     1.3413276648
Bq         3.3290095112     1.0131437251     2.2016716316
Bq         3.5857981544     1.1554203154     1.2457338907
Bq         3.4574038328     1.0842820203     1.7237027612
Bq         3.4132697158     1.5649678314     1.8879992331
Bq         3.4646274444     1.5934231495     1.6968116849
Bq         3.3875908515     1.5507401724     1.9835930071
Bq         3.4903063087     1.6076508085     1.6012179108
Bq         3.3619119871     1.5365125133     2.0791867812
Bq         3.5159851731     1.6218784675     1.5056241367
Bq         3.3362331228     1.5222848543     2.1747805553
Bq         3.5416640374     1.6361061265     1.4100303626
Bq         3.3105542585     1.5080571953     2.2703743294
Bq         3.5673429017     1.6503337856     1.3144365885
Bq         3.4389485801     1.5791954904     1.7924054590
Bq         3.3948144631     2.0598813016     1.9567019308
Bq         3.4461721917     2.0883366196     1.7655143827
Bq         3.3691355988     2.0456536426     2.0522957049
Bq         3.4718510561     2.1025642787     1.6699206086
Bq         3.3434567345     2.0314259835     2.1478894790
Bq         3.4975299204     2.1167919377     1.5743268345
Bq         3.3177778701     2.0171983245     2.2434832531
Bq         3.5232087847     2.1310195967     1.4787330604
Bq         3.2920990058     2.0029706655     2.3390770272
Bq         3.5488876490     2.1452472558     1.3831392863
Bq         3.4204933274     2.0741089606     1.8611081568
Bq         4.0622482401    -2.8892534002     1.3993888618
Bq         4.1136059687    -2.8607980821     1.2082013137
Bq         4.0365693758    -2.9034810592     1.4949826359
Bq         4.1392848331    -2.8465704231     1.1126075396
Bq         4.0108905115    -2.9177087183     1.5905764100
Bq         4.1649636974    -2.8323427641     1.0170137655
Bq         3.9852116471    -2.9319363773     1.6861701841
Bq         4.1906425617    -2.8181151051     0.9214199914
Bq         3.9595327828    -2.9461640363     1.7817639582
Bq         4.2163214260    -2.8038874460     0.8258262173
Bq         4.0879271044    -2.8750257412     1.3037950878
Bq         4.0437929874    -2.3943399300     1.4680915596
Bq         4.0951507161    -2.3658846120     1.2769040115
Bq         4.0181141231    -2.4085675891     1.5636853337
Bq         4.1208295804    -2.3516569529     1.1813102374
Bq         3.9924352588    -2.4227952481     1.6592791078
Bq         4.1465084447    -2.3374292939     1.0857164633
Bq         3.9667563945    -2.4370229071     1.7548728819
Bq         4.1721873090    -2.3232016349     0.9901226892
Bq         3.9410775301    -2.4512505661     1.8504666560
Bq         4.1978661734    -2.3089739759     0.8945289151
Bq         4.0694718517    -2.3801122710     1.3724977855
Bq         4.0253377347    -1.8994264598     1.5367942574
Bq         4.0766954634    -1.8709711418     1.3456067092
Bq         3.9996588704    -1.9136541189     1.6323880315
Bq         4.1023743277    -1.8567434828     1.2500129352
Bq         3.9739800061    -1.9278817779     1.7279818056
Bq         4.1280531920    -1.8425158237     1.1544191611
Bq         3.9483011418    -1.9421094369     1.8235755797
Bq         4.1537320564    -1.8282881647     1.0588253870
Bq         3.9226222775    -1.9563370960     1.9191693538
Bq         4.1794109207    -1.8140605057     0.9632316129
Bq         4.0510165991    -1.8851988008     1.4412004833
Bq         4.0068824821    -1.4045129897     1.6054969552
Bq         4.0582402107    -1.3760576716     1.4143094070
Bq         3.9812036177    -1.4187406487     1.7010907293
Bq         4.0839190750    -1.3618300126     1.3187156329
Bq         3.9555247534    -1.4329683077     1.7966845034
Bq         4.1095979394    -1.3476023536     1.2231218589
Bq         3.9298458891    -1.4471959668     1.8922782775
Bq         4.1352768037    -1.3333746945     1.1275280848
Bq         3.9041670248    -1.4614236258     1.9878720516
Bq         4.1609556680    -1.3191470355     1.0319343107
Bq         4.0325613464    -1.3902853306     1.5099031811
Bq         3.9884272294    -0.9095995195     1.6741996530
Bq         4.0397849580    -0.8811442014     1.4830121048
Bq         3.9627483651    -0.9238271785     1.7697934271
Bq         4.0654638224    -0.8669165424     1.3874183307
Bq         3.9370695007    -0.9380548375     1.8653872012
Bq         4.0911426867    -0.8526888834     1.2918245566
Bq         3.9113906364    -0.9522824966     1.9609809753
Bq         4.1168215510    -0.8384612243     1.1962307826
Bq         3.8857117721    -0.9665101556     2.0565747494
Bq         4.1425004153    -0.8242335653     1.1006370085
Bq         4.0141060937    -0.8953718605     1.5786058789
Bq         3.9699719767    -0.4146860493     1.7429023508
Bq         4.0213297054    -0.3862307313     1.5517148026
Bq         3.9442931124    -0.4289137083     1.8384961249
Bq         4.0470085697    -0.3720030722     1.4561210285
Bq         3.9186142481    -0.4431413674     1.9340898990
Bq         4.0726874340    -0.3577754132     1.3605272544
Bq         3.8929353837    -0.4573690264     2.0296836731
Bq         4.0983662983    -0.3435477542     1.2649334803
Bq         3.8672565194    -0.4715966854     2.1252774472
Bq         4.1240451627    -0.3293200951     1.1693397063
Bq         3.9956508410    -0.4004583903     1.6473085767
Bq         3.9515167240     0.0802274209     1.8116050486
Bq         4.0028744527     0.1086827389     1.6204175004
Bq         3.9258378597     0.0659997618     1.9071988227
Bq         4.0285533170     0.1229103980     1.5248237263
Bq         3.9001589954     0.0517721028     2.0027925968
Bq         4.0542321813     0.1371380570     1.4292299522
Bq         3.8744801311     0.0375444438     2.0983863709
Bq         4.0799110457     0.1513657160     1.3336361781
Bq         3.8488012667     0.0233167848     2.1939801450
Bq         4.1055899100     0.1655933750     1.2380424040
Bq         3.9771955884     0.0944550799     1.7160112745
Bq         3.9330614714     0.5751408910     1.8803077464
Bq         3.9844192000     0.6035962091     1.6891201982
Bq         3.9073826070     0.5609132320     1.9759015205
Bq         4.0100980643     0.6178238681     1.5935264241
Bq         3.8817037427     0.5466855730     2.0714952946
Bq         4.0357769287     0.6320515272     1.4979326500
Bq         3.8560248784     0.5324579140     2.1670890687
Bq         4.0614557930     0.6462791862     1.4023388759
Bq         3.8303460141     0.5182302549     2.2626828428
Bq         4.0871346573     0.6605068452     1.3067451018
Bq         3.9587403357     0.5893685501     1.7847139723
Bq         3.9146062187     1.0700543612     1.9490104442
Bq         3.9659639473     1.0985096793     1.7578228960
Bq         3.8889273544     1.0558267022     2.0446042183
Bq         3.9916428117     1.1127373383     1.6622291219
Bq         3.8632484900     1.0415990432     2.1401979924
Bq         4.0173216760     1.1269649973     1.5666353478
Bq         3.8375696257     1.0273713841     2.2357917665
Bq         4.0430005403     1.1411926564     1.4710415737
Bq         3.8118907614     1.0131437251     2.3313855406
Bq         4.0686794046     1.1554203154     1.3754477996
Bq         3.9402850830     1.0842820203     1.8534166701
Bq         3.8961509660     1.5649678314     2.0177131420
Bq         3.9475086947     1.5934231495     1.8265255938
Bq         3.8704721017     1.5507401724     2.1133069161
Bq         3.9731875590     1.6076508085     1.7309318197
Bq         3.8447932374     1.5365125133     2.2089006902
Bq         3.9988664233     1.6218784675     1.6353380456
Bq         3.8191143730     1.5222848543     2.3044944643
Bq         4.0245452876     1.6361061265     1.5397442715
Bq         3.7934355087     1.5080571953     2.4000882384
Bq         4.0502241519     1.6503337856     1.4441504974
Bq         3.9218298303     1.5791954904     1.9221193679

1
2
3
4
5
6
7
8
9
10
11
12
13
14
15
16
17
18
19
20
21
22
23
24
25
26
27
28
29
30
31
32
33
34
35
36
37
38
39
40
41
42
43
44
45
46
47
48
49
50
51
52
53
54
55
56
57
58
59
60
61
62
63
64
65
66
67
68
69
70
71
72
73
74
75
76
77
78
79
80
81
82
83
84
85
86
87
88
89
90
91
92
93
94
95
96
97
98
99
100
101
102
103
104
105
106
107
108
109
110
111
112
113
114
115
116
117
118
119
120
121
122
123
124
125
126
127
128
129
130
131
132
133
134
135
136
137
138
139
140
141
142
143
144
145
146
147
148
149
150
151
152
153
154
155
156
157
158
159
160
161
162
163
164
165
166
167
168
169
170
171
172
173
174
175
176
177
178
179
180
181
182
183
184
185
186
187
188
189
190
191
192
193
194
195
196
197
198
199
200
201
202
203
204
205
206
207
208
209
210
211
212
213
214
215
216
217
218
219
220
221
222
223
224
225
226
227
228
229
230
231
232
233
234
235
236

