%nproc=8
%mem=1000MB
# rb3lyp/6-311+g** NMR geom=connectivity

Title

0 1
C    -4.0500558   -0.5771862    0.8136712
H    -5.0263804   -1.0082727    1.0024760
C    -3.9381552    0.6617804    0.2400876
H    -4.8252424    1.2338890   -0.0111295
C    -2.6768410    1.2433246    0.0057578
C    -1.4974121    0.5051527    0.2848253
C    -1.6508332   -0.7338728    0.9404026
H    -0.7713646   -1.2730967    1.2633753
C    -2.8898548   -1.2624035    1.1994307
H    -2.9683706   -2.2124563    1.7152676
C    -2.5773185    2.5963696   -0.4192930
H    -3.4870728    3.1412239   -0.6474055
C    -1.3741895    3.2147896   -0.4364030
H    -1.2997315    4.2742019   -0.6578144
C    -0.1719488    2.4994090   -0.1734588
C    -0.2043917    1.1018437    0.0192689
C     1.0513491    3.2042560   -0.0676222
H     1.0427344    4.2819499   -0.1896997
C     2.1942091    2.5487446    0.2579577
H     3.1168527    3.0912848    0.4334727
C     2.2216473    1.1336562    0.2934990
C     1.0486931    0.3945528    0.0302412
C     3.4483363    0.4614633    0.5573939
H     4.3095794    1.0606054    0.8334846
C     3.5427346   -0.8855926    0.4749463
H     4.4731467   -1.3939704    0.7038822
C     2.4490052   -1.6474447   -0.0196319
C     1.2150704   -1.0057258   -0.3013573
C     0.2531113   -1.7434440   -1.0216591
H    -0.6541356   -1.2535051   -1.3462847
C     0.4494193   -3.0628597   -1.3413779
H    -0.3083162   -3.5944309   -1.9054060
C     1.6251726   -3.7207967   -0.9552541
H     1.7670048   -4.7687404   -1.1927019
C     2.6109872   -3.0144177   -0.3183050
H     3.5525612   -3.4902813   -0.0646367
Bq         1.5948357503    -2.0435104264     0.1949239887
Bq         1.2360798762    -2.2830512864     0.9848065111
Bq         1.6346975141    -2.0168947753     0.1071592640
Bq         1.4353886952    -2.1499730308     0.5459828876
Bq         1.3404945645    -1.6946237684     0.7549138646
Bq         1.4202180921    -1.6413924662     0.5793844151
Bq         1.3006328007    -1.7212394195     0.8426785893
Bq         1.4600798559    -1.6147768151     0.4916196904
Bq         1.2607710369    -1.7478550706     0.9304433140
Bq         1.4999416197    -1.5881611640     0.4038549657
Bq         1.2209092732    -1.7744707217     1.0182080387
Bq         1.5398033835    -1.5615455129     0.3160902410
Bq         1.1810475094    -1.8010863728     1.1059727634
Bq         1.5796651472    -1.5349298617     0.2283255163
Bq         1.3803563283    -1.6680081173     0.6671491398
Bq         1.2854621977    -1.2126588548     0.8760801169
Bq         1.3651857252    -1.1594275526     0.7005506674
Bq         1.2456004339    -1.2392745059     0.9638448416
Bq         1.4050474890    -1.1328119015     0.6127859427
Bq         1.2057386701    -1.2658901570     1.0516095663
Bq         1.4449092528    -1.1061962504     0.5250212180
Bq         1.1658769063    -1.2925058081     1.1393742910
Bq         1.4847710166    -1.0795805993     0.4372564933
Bq         1.1260151425    -1.3191214593     1.2271390157
Bq         1.5246327804    -1.0529649482     0.3494917686
Bq         1.3253239614    -1.1860432037     0.7883153921
Bq         1.2304298308    -0.7306939413     0.9972463691
Bq         1.3101533584    -0.6774626391     0.8217169197
Bq         1.1905680670    -0.7573095924     1.0850110939
Bq         1.3500151222    -0.6508469879     0.7339521950
Bq         1.1507063032    -0.7839252435     1.1727758186
Bq         1.3898768859    -0.6242313368     0.6461874703
Bq         1.1108445394    -0.8105408946     1.2605405433
Bq         1.4297386497    -0.5976156857     0.5584227456
Bq         1.0709827756    -0.8371565457     1.3483052680
Bq         1.4696004135    -0.5710000346     0.4706580209
Bq         1.2702915946    -0.7040782902     0.9094816444
Bq         1.1753974639    -0.2487290277     1.1184126214
Bq         1.2551209915    -0.1954977255     0.9428831720
Bq         1.1355357001    -0.2753446788     1.2061773461
Bq         1.2949827553    -0.1688820744     0.8551184473
Bq         1.0956739364    -0.3019603299     1.2939420709
Bq         1.3348445191    -0.1422664233     0.7673537226
Bq         1.0558121726    -0.3285759810     1.3817067956
Bq         1.3747062829    -0.1156507722     0.6795889979
Bq         1.0159504088    -0.3551916321     1.4694715203
Bq         1.4145680467    -0.0890351211     0.5918242732
Bq         1.2152592277    -0.2221133766     1.0306478967
Bq         2.1809654991    -5.0683781633     0.1135170367
Bq         2.2606890267    -5.0151468611    -0.0620124128
Bq         2.1411037353    -5.0949938144     0.2012817614
Bq         2.3005507905    -4.9885312100    -0.1497771375
Bq         2.1012419715    -5.1216094655     0.2890464861
Bq         2.3404125543    -4.9619155589    -0.2375418622
Bq         2.0613802077    -5.1482251166     0.3768112108
Bq         2.3802743180    -4.9352999078    -0.3253065869
Bq         2.0215184440    -5.1748407677     0.4645759355
Bq         2.4201360818    -4.9086842567    -0.4130713116
Bq         2.2208272629    -5.0417625122     0.0257523120
Bq         2.1259331322    -4.5864132498     0.2346832890
Bq         2.2056566598    -4.5331819475     0.0591538395
Bq         2.0860713685    -4.6130289009     0.3224480137
Bq         2.2455184236    -4.5065662964    -0.0286108852
Bq         2.0462096047    -4.6396445520     0.4102127384
Bq         2.2853801874    -4.4799506453    -0.1163756099
Bq         2.0063478409    -4.6662602031     0.4979774631
Bq         2.3252419512    -4.4533349942    -0.2041403346
Bq         1.9664860771    -4.6928758542     0.5857421878
Bq         2.3651037150    -4.4267193431    -0.2919050593
Bq         2.1657948960    -4.5597975986     0.1469185643
Bq         2.0709007654    -4.1044483362     0.3558495413
Bq         2.1506242930    -4.0512170340     0.1803200918
Bq         2.0310390016    -4.1310639873     0.4436142660
Bq         2.1904860567    -4.0246013829     0.0925553671
Bq         1.9911772378    -4.1576796384     0.5313789907
Bq         2.2303478205    -3.9979857318     0.0047906424
Bq         1.9513154740    -4.1842952895     0.6191437154
Bq         2.2702095843    -3.9713700807    -0.0829740823
Bq         1.9114537102    -4.2109109406     0.7069084401
Bq         2.3100713481    -3.9447544296    -0.1707388070
Bq         2.1107625292    -4.0778326851     0.2680848165
Bq         2.0158683985    -3.6224834226     0.4770157935
Bq         2.0955919261    -3.5692521204     0.3014863441
Bq         1.9760066347    -3.6490990737     0.5647805183
Bq         2.1354536899    -3.5426364693     0.2137216194
Bq         1.9361448710    -3.6757147248     0.6525452430
Bq         2.1753154537    -3.5160208182     0.1259568947
Bq         1.8962831072    -3.7023303760     0.7403099677
Bq         2.2151772175    -3.4894051671     0.0381921700
Bq         1.8564213434    -3.7289460271     0.8280746924
Bq         2.2550389813    -3.4627895160    -0.0495725547
Bq         2.0557301623    -3.5958677715     0.3892510688
Bq         1.9608360317    -3.1405185091     0.5981820458
Bq         2.0405595592    -3.0872872069     0.4226525964
Bq         1.9209742679    -3.1671341602     0.6859467705
Bq         2.0804213230    -3.0606715558     0.3348878717
Bq         1.8811125041    -3.1937498113     0.7737114953
Bq         2.1202830868    -3.0340559046     0.2471231470
Bq         1.8412507403    -3.2203654624     0.8614762200
Bq         2.1601448506    -3.0074402535     0.1593584223
Bq         1.8013889765    -3.2469811135     0.9492409447
Bq         2.2000066144    -2.9808246024     0.0715936976
Bq         2.0006977955    -3.1139028580     0.5104173211
Bq         1.9058036648    -2.6585535955     0.7193482981
Bq         1.9855271924    -2.6053222933     0.5438188487
Bq         1.8659419010    -2.6851692466     0.8071130228
Bq         2.0253889562    -2.5787066422     0.4560541240
Bq         1.8260801372    -2.7117848977     0.8948777475
Bq         2.0652507200    -2.5520909911     0.3682893993
Bq         1.7862183734    -2.7384005488     0.9826424723
Bq         2.1051124837    -2.5254753400     0.2805246746
Bq         1.7463566097    -2.7650161999     1.0704071970
Bq         2.1449742475    -2.4988596889     0.1927599498
Bq         1.9456654286    -2.6319379444     0.6315835734
Bq         1.8507712979    -2.1765886819     0.8405145504
Bq         1.9304948255    -2.1233573797     0.6649851010
Bq         1.8109095342    -2.2032043331     0.9282792751
Bq         1.9703565893    -2.0967417286     0.5772203763
Bq         1.7710477704    -2.2298199842     1.0160439998
Bq         2.0102183531    -2.0701260775     0.4894556516
Bq         1.7311860066    -2.2564356353     1.1038087246
Bq         2.0500801169    -2.0435104264     0.4016909268
Bq         1.6913242428    -2.2830512864     1.1915734493
Bq         2.0899418807    -2.0168947753     0.3139262021
Bq         1.8906330617    -2.1499730308     0.7527498257
Bq         1.7957389311    -1.6946237684     0.9616808027
Bq         1.8754624587    -1.6413924662     0.7861513533
Bq         1.7558771673    -1.7212394195     1.0494455274
Bq         1.9153242224    -1.6147768151     0.6983866286
Bq         1.7160154035    -1.7478550706     1.1372102521
Bq         1.9551859862    -1.5881611640     0.6106219039
Bq         1.6761536397    -1.7744707217     1.2249749768
Bq         1.9950477500    -1.5615455129     0.5228571791
Bq         1.6362918759    -1.8010863728     1.3127397016
Bq         2.0349095138    -1.5349298617     0.4350924544
Bq         1.8356006949    -1.6680081173     0.8739160780
Bq         1.7407065642    -1.2126588548     1.0828470550
Bq         1.8204300918    -1.1594275526     0.9073176056
Bq         1.7008448004    -1.2392745059     1.1706117797
Bq         1.8602918556    -1.1328119015     0.8195528809
Bq         1.6609830366    -1.2658901570     1.2583765044
Bq         1.9001536194    -1.1061962504     0.7317881561
Bq         1.6211212729    -1.2925058081     1.3461412291
Bq         1.9400153832    -1.0795805993     0.6440234314
Bq         1.5812595091    -1.3191214593     1.4339059538
Bq         1.9798771469    -1.0529649482     0.5562587067
Bq         1.7805683280    -1.1860432037     0.9950823303
Bq         1.6856741974    -0.7306939413     1.2040133073
Bq         1.7653977249    -0.6774626391     1.0284838579
Bq         1.6458124336    -0.7573095924     1.2917780320
Bq         1.8052594887    -0.6508469879     0.9407191331
Bq         1.6059506698    -0.7839252435     1.3795427567
Bq         1.8451212525    -0.6242313368     0.8529544084
Bq         1.5660889060    -0.8105408946     1.4673074814
Bq         1.8849830163    -0.5976156857     0.7651896837
Bq         1.5262271422    -0.8371565457     1.5550722061
Bq         1.9248447801    -0.5710000346     0.6774249590
Bq         1.7255359612    -0.7040782902     1.1162485826
Bq         1.6306418305    -0.2487290277     1.3251795596
Bq         1.7103653581    -0.1954977255     1.1496501101
Bq         1.5907800667    -0.2753446788     1.4129442843
Bq         1.7502271219    -0.1688820744     1.0618853854
Bq         1.5509183029    -0.3019603299     1.5007090090
Bq         1.7900888857    -0.1422664233     0.9741206607
Bq         1.5110565391    -0.3285759810     1.5884737337
Bq         1.8299506494    -0.1156507722     0.8863559360
Bq         1.4711947754    -0.3551916321     1.6762384584
Bq         1.8698124132    -0.0890351211     0.7985912113
Bq         1.6705035943    -0.2221133766     1.2374148349
Bq         2.6362098657    -5.0683781633     0.3202839748
Bq         2.7159333933    -5.0151468611     0.1447545254
Bq         2.5963481019    -5.0949938144     0.4080486995
Bq         2.7557951570    -4.9885312100     0.0569898007
Bq         2.5564863381    -5.1216094655     0.4958134242
Bq         2.7956569208    -4.9619155589    -0.0307749240
Bq         2.5166245743    -5.1482251166     0.5835781490
Bq         2.8355186846    -4.9352999078    -0.1185396487
Bq         2.4767628105    -5.1748407677     0.6713428737
Bq         2.8753804484    -4.9086842567    -0.2063043735
Bq         2.6760716295    -5.0417625122     0.2325192501
Bq         2.5811774988    -4.5864132498     0.4414502271
Bq         2.6609010264    -4.5331819475     0.2659207777
Bq         2.5413157350    -4.6130289009     0.5292149518
Bq         2.7007627902    -4.5065662964     0.1781560530
Bq         2.5014539712    -4.6396445520     0.6169796765
Bq         2.7406245540    -4.4799506453     0.0903913283
Bq         2.4615922075    -4.6662602031     0.7047444012
Bq         2.7804863178    -4.4533349942     0.0026266035
Bq         2.4217304437    -4.6928758542     0.7925091260
Bq         2.8203480815    -4.4267193431    -0.0851381212
Bq         2.6210392626    -4.5597975986     0.3536855024
Bq         2.5261451320    -4.1044483362     0.5626164794
Bq         2.6058686595    -4.0512170340     0.3870870300
Bq         2.4862833682    -4.1310639873     0.6503812041
Bq         2.6457304233    -4.0246013829     0.2993223053
Bq         2.4464216044    -4.1576796384     0.7381459288
Bq         2.6855921871    -3.9979857318     0.2115575805
Bq         2.4065598406    -4.1842952895     0.8259106535
Bq         2.7254539509    -3.9713700807     0.1237928558
Bq         2.3666980768    -4.2109109406     0.9136753782

1
2
3
4
5
6
7
8
9
10
11
12
13
14
15
16
17
18
19
20
21
22
23
24
25
26
27
28
29
30
31
32
33
34
35
36
37
38
39
40
41
42
43
44
45
46
47
48
49
50
51
52
53
54
55
56
57
58
59
60
61
62
63
64
65
66
67
68
69
70
71
72
73
74
75
76
77
78
79
80
81
82
83
84
85
86
87
88
89
90
91
92
93
94
95
96
97
98
99
100
101
102
103
104
105
106
107
108
109
110
111
112
113
114
115
116
117
118
119
120
121
122
123
124
125
126
127
128
129
130
131
132
133
134
135
136
137
138
139
140
141
142
143
144
145
146
147
148
149
150
151
152
153
154
155
156
157
158
159
160
161
162
163
164
165
166
167
168
169
170
171
172
173
174
175
176
177
178
179
180
181
182
183
184
185
186
187
188
189
190
191
192
193
194
195
196
197
198
199
200
201
202
203
204
205
206
207
208
209
210
211
212
213
214
215
216
217
218
219
220
221
222
223
224
225
226
227
228
229
230
231
232
233
234
235
236

