%nproc=8
%mem=1000MB
# rb3lyp/6-311+g** NMR geom=connectivity

Title

0 1
C    -4.0500558   -0.5771862    0.8136712
H    -5.0263804   -1.0082727    1.0024760
C    -3.9381552    0.6617804    0.2400876
H    -4.8252424    1.2338890   -0.0111295
C    -2.6768410    1.2433246    0.0057578
C    -1.4974121    0.5051527    0.2848253
C    -1.6508332   -0.7338728    0.9404026
H    -0.7713646   -1.2730967    1.2633753
C    -2.8898548   -1.2624035    1.1994307
H    -2.9683706   -2.2124563    1.7152676
C    -2.5773185    2.5963696   -0.4192930
H    -3.4870728    3.1412239   -0.6474055
C    -1.3741895    3.2147896   -0.4364030
H    -1.2997315    4.2742019   -0.6578144
C    -0.1719488    2.4994090   -0.1734588
C    -0.2043917    1.1018437    0.0192689
C     1.0513491    3.2042560   -0.0676222
H     1.0427344    4.2819499   -0.1896997
C     2.1942091    2.5487446    0.2579577
H     3.1168527    3.0912848    0.4334727
C     2.2216473    1.1336562    0.2934990
C     1.0486931    0.3945528    0.0302412
C     3.4483363    0.4614633    0.5573939
H     4.3095794    1.0606054    0.8334846
C     3.5427346   -0.8855926    0.4749463
H     4.4731467   -1.3939704    0.7038822
C     2.4490052   -1.6474447   -0.0196319
C     1.2150704   -1.0057258   -0.3013573
C     0.2531113   -1.7434440   -1.0216591
H    -0.6541356   -1.2535051   -1.3462847
C     0.4494193   -3.0628597   -1.3413779
H    -0.3083162   -3.5944309   -1.9054060
C     1.6251726   -3.7207967   -0.9552541
H     1.7670048   -4.7687404   -1.1927019
C     2.6109872   -3.0144177   -0.3183050
H     3.5525612   -3.4902813   -0.0646367
Bq        -1.4170169333     1.8601482000    -0.1198838000
Bq        -3.9816383794    -0.2933051073     1.4597856881
Bq        -3.9739544167    -0.3424037421     1.2660583519
Bq        -3.9854803607    -0.2687557900     1.5566493562
Bq        -3.9701124354    -0.3669530595     1.1691946838
Bq        -3.9893223420    -0.2442064726     1.6535130242
Bq        -3.9662704541    -0.3915023768     1.0723310157
Bq        -3.9931643234    -0.2196571552     1.7503766923
Bq        -3.9624284727    -0.4160516942     0.9754673476
Bq        -3.9970063047    -0.1951078378     1.8472403604
Bq        -3.9585864914    -0.4406010116     0.8786036795
Bq        -3.9777963981    -0.3178544247     1.3629220200
Bq        -3.9767736083     0.1913940524     1.3371355409
Bq        -3.9690896456     0.1422954176     1.1434082048
Bq        -3.9806155896     0.2159433697     1.4339992090
Bq        -3.9652476643     0.1177461002     1.0465445367
Bq        -3.9844575709     0.2404926871     1.5308628771
Bq        -3.9614056829     0.0931967828     0.9496808686
Bq        -3.9882995523     0.2650420045     1.6277265452
Bq        -3.9575637016     0.0686474655     0.8528172005
Bq        -3.9921415336     0.2895913219     1.7245902133
Bq        -3.9537217203     0.0440981481     0.7559535324
Bq        -3.9729316269     0.1668447350     1.2402718728
Bq        -3.9719088371     0.6760932120     1.2144853938
Bq        -3.9642248745     0.6269945773     1.0207580576
Bq        -3.9757508185     0.7006425294     1.3113490619
Bq        -3.9603828932     0.6024452599     0.9238943895
Bq        -3.9795927998     0.7251918468     1.4082127300
Bq        -3.9565409118     0.5778959425     0.8270307214
Bq        -3.9834347811     0.7497411642     1.5050763981
Bq        -3.9526989305     0.5533466252     0.7301670533
Bq        -3.9872767625     0.7742904816     1.6019400662
Bq        -3.9488569492     0.5287973078     0.6333033853
Bq        -3.9680668558     0.6515438947     1.1176217257
Bq        -3.9670440660     1.1607923717     1.0918352467
Bq        -3.9593601034     1.1116937370     0.8981079105
Bq        -3.9708860474     1.1853416891     1.1886989147
Bq        -3.9555181220     1.0871444196     0.8012442424
Bq        -3.9747280287     1.2098910065     1.2855625828
Bq        -3.9516761407     1.0625951022     0.7043805743
Bq        -3.9785700100     1.2344403239     1.3824262509
Bq        -3.9478341594     1.0380457849     0.6075169062
Bq        -3.9824119913     1.2589896412     1.4792899190
Bq        -3.9439921780     1.0134964675     0.5106532381
Bq        -3.9632020847     1.1362430544     0.9949715786
Bq        -3.9621792949     1.6454915314     0.9691850995
Bq        -3.9544953322     1.5963928967     0.7754577633
Bq        -3.9660212762     1.6700408488     1.0660487676
Bq        -3.9506533509     1.5718435793     0.6785940953
Bq        -3.9698632576     1.6945901662     1.1629124357
Bq        -3.9468113696     1.5472942619     0.5817304272
Bq        -3.9737052389     1.7191394836     1.2597761038
Bq        -3.9429693883     1.5227449446     0.4848667591
Bq        -3.9775472202     1.7436888009     1.3566397719
Bq        -3.9391274069     1.4981956272     0.3880030910
Bq        -3.9583373136     1.6209422141     0.8723214314
Bq        -3.9573145238     2.1301906911     0.8465349524
Bq        -3.9496305611     2.0810920564     0.6528076162
Bq        -3.9611565051     2.1547400085     0.9433986205
Bq        -3.9457885798     2.0565427390     0.5559439481
Bq        -3.9649984864     2.1792893259     1.0402622886
Bq        -3.9419465985     2.0319934216     0.4590802800
Bq        -3.9688404678     2.2038386433     1.1371259567
Bq        -3.9381046171     2.0074441043     0.3622166119
Bq        -3.9726824491     2.2283879606     1.2339896247
Bq        -3.9342626358     1.9828947869     0.2653529438
Bq        -3.9534725424     2.1056413738     0.7496712843
Bq        -3.9524497527     2.6148898508     0.7238848053
Bq        -3.9447657900     2.5657912161     0.5301574691
Bq        -3.9562917340     2.6394391682     0.8207484733
Bq        -3.9409238087     2.5412418987     0.4332938010
Bq        -3.9601337153     2.6639884856     0.9176121414
Bq        -3.9370818273     2.5166925813     0.3364301329
Bq        -3.9639756966     2.6885378030     1.0144758095
Bq        -3.9332398460     2.4921432640     0.2395664648
Bq        -3.9678176780     2.7130871203     1.1113394776
Bq        -3.9293978647     2.4675939466     0.1427027967
Bq        -3.9486077713     2.5903405335     0.6270211372
Bq        -3.9475849815     3.0995890105     0.6012346581
Bq        -3.9399010189     3.0504903758     0.4075073219
Bq        -3.9514269629     3.1241383279     0.6980983262
Bq        -3.9360590375     3.0259410584     0.3106436538
Bq        -3.9552689442     3.1486876453     0.7949619943
Bq        -3.9322170562     3.0013917410     0.2137799858
Bq        -3.9591109255     3.1732369627     0.8918256624
Bq        -3.9283750749     2.9768424236     0.1169163177
Bq        -3.9629529068     3.1977862800     0.9886893305
Bq        -3.9245330936     2.9522931063     0.0200526496
Bq        -3.9437430002     3.0750396931     0.5043709900
Bq        -3.9427202104     3.5842881702     0.4785845110
Bq        -3.9350362478     3.5351895355     0.2848571748
Bq        -3.9465621917     3.6088374876     0.5754481791
Bq        -3.9311942664     3.5106402181     0.1879935067
Bq        -3.9504041731     3.6333868050     0.6723118472
Bq        -3.9273522851     3.4860909007     0.0911298386
Bq        -3.9542461544     3.6579361223     0.7691755153
Bq        -3.9235103038     3.4615415833    -0.0057338295
Bq        -3.9580881357     3.6824854397     0.8660391833
Bq        -3.9196683224     3.4369922660    -0.1025974976
Bq        -3.9388782291     3.5597388528     0.3817208429
Bq        -3.9378554393     4.0689873299     0.3559343638
Bq        -3.9301714766     4.0198886952     0.1622070277
Bq        -3.9416974206     4.0935366473     0.4527980319
Bq        -3.9263294953     3.9953393778     0.0653433596
Bq        -3.9455394019     4.1180859647     0.5496617000
Bq        -3.9224875140     3.9707900604    -0.0315203085
Bq        -3.9493813833     4.1426352820     0.6465253681
Bq        -3.9186455326     3.9462407430    -0.1283839766
Bq        -3.9532233646     4.1671845994     0.7433890362
Bq        -3.9148035513     3.9216914257    -0.2252476447
Bq        -3.9340134580     4.0444380125     0.2590706958
Bq        -3.9329906682     4.5536864896     0.2332842167
Bq        -3.9253067055     4.5045878549     0.0395568805
Bq        -3.9368326495     4.5782358070     0.3301478848
Bq        -3.9214647242     4.4800385375    -0.0573067876
Bq        -3.9406746308     4.6027851244     0.4270115529
Bq        -3.9176227428     4.4554892201    -0.1541704557
Bq        -3.9445166122     4.6273344417     0.5238752210
Bq        -3.9137807615     4.4309399027    -0.2510341237
Bq        -3.9483585935     4.6518837591     0.6207388891
Bq        -3.9099387802     4.4063905854    -0.3478977918
Bq        -3.9291486868     4.5291371722     0.1364205486
Bq        -3.4820312202    -0.2933051073     1.4796020074
Bq        -3.4743472576    -0.3424037421     1.2858746712
Bq        -3.4858732016    -0.2687557900     1.5764656755
Bq        -3.4705052762    -0.3669530595     1.1890110031
Bq        -3.4897151829    -0.2442064726     1.6733293436
Bq        -3.4666632949    -0.3915023768     1.0921473350
Bq        -3.4935571642    -0.2196571552     1.7701930117
Bq        -3.4628213136    -0.4160516942     0.9952836669
Bq        -3.4973991455    -0.1951078378     1.8670566797
Bq        -3.4589793322    -0.4406010116     0.8984199988
Bq        -3.4781892389    -0.3178544247     1.3827383393
Bq        -3.4771664491     0.1913940524     1.3569518603
Bq        -3.4694824864     0.1422954176     1.1632245241
Bq        -3.4810084304     0.2159433697     1.4538155283
Bq        -3.4656405051     0.1177461002     1.0663608560
Bq        -3.4848504118     0.2404926871     1.5506791964
Bq        -3.4617985238     0.0931967828     0.9694971879
Bq        -3.4886923931     0.2650420045     1.6475428645
Bq        -3.4579565425     0.0686474655     0.8726335198
Bq        -3.4925343744     0.2895913219     1.7444065326
Bq        -3.4541145611     0.0440981481     0.7757698517
Bq        -3.4733244678     0.1668447350     1.2600881922
Bq        -3.4723016780     0.6760932120     1.2343017131
Bq        -3.4646177153     0.6269945773     1.0405743769
Bq        -3.4761436593     0.7006425294     1.3311653812
Bq        -3.4607757340     0.6024452599     0.9437107088
Bq        -3.4799856406     0.7251918468     1.4280290493
Bq        -3.4569337527     0.5778959425     0.8468470408
Bq        -3.4838276220     0.7497411642     1.5248927174
Bq        -3.4530917713     0.5533466252     0.7499833727
Bq        -3.4876696033     0.7742904816     1.6217563855
Bq        -3.4492497900     0.5287973078     0.6531197046
Bq        -3.4684596966     0.6515438947     1.1374380450
Bq        -3.4674369069     1.1607923717     1.1116515660
Bq        -3.4597529442     1.1116937370     0.9179242298
Bq        -3.4712788882     1.1853416891     1.2085152341
Bq        -3.4559109629     1.0871444196     0.8210605617
Bq        -3.4751208695     1.2098910065     1.3053789022
Bq        -3.4520689815     1.0625951022     0.7241968936
Bq        -3.4789628508     1.2344403239     1.4022425702
Bq        -3.4482270002     1.0380457849     0.6273332255
Bq        -3.4828048322     1.2589896412     1.4991062383
Bq        -3.4443850189     1.0134964675     0.5304695574
Bq        -3.4635949255     1.1362430544     1.0147878979
Bq        -3.4625721357     1.6454915314     0.9890014188
Bq        -3.4548881731     1.5963928967     0.7952740827
Bq        -3.4664141171     1.6700408488     1.0858650869
Bq        -3.4510461917     1.5718435793     0.6984104146
Bq        -3.4702560984     1.6945901662     1.1827287550
Bq        -3.4472042104     1.5472942619     0.6015467465
Bq        -3.4740980797     1.7191394836     1.2795924231
Bq        -3.4433622291     1.5227449446     0.5046830784
Bq        -3.4779400611     1.7436888009     1.3764560912
Bq        -3.4395202478     1.4981956272     0.4078194103
Bq        -3.4587301544     1.6209422141     0.8921377508
Bq        -3.4577073646     2.1301906911     0.8663512717
Bq        -3.4500234020     2.0810920564     0.6726239355
Bq        -3.4615493459     2.1547400085     0.9632149398
Bq        -3.4461814206     2.0565427390     0.5757602674
Bq        -3.4653913273     2.1792893259     1.0600786079
Bq        -3.4423394393     2.0319934216     0.4788965993
Bq        -3.4692333086     2.2038386433     1.1569422760
Bq        -3.4384974580     2.0074441043     0.3820329313
Bq        -3.4730752899     2.2283879606     1.2538059441
Bq        -3.4346554766     1.9828947869     0.2851692632
Bq        -3.4538653833     2.1056413738     0.7694876036
Bq        -3.4528425935     2.6148898508     0.7437011246
Bq        -3.4451586308     2.5657912161     0.5499737884
Bq        -3.4566845748     2.6394391682     0.8405647927
Bq        -3.4413166495     2.5412418987     0.4531101203
Bq        -3.4605265561     2.6639884856     0.9374284608
Bq        -3.4374746682     2.5166925813     0.3562464522
Bq        -3.4643685375     2.6885378030     1.0342921288
Bq        -3.4336326868     2.4921432640     0.2593827841
Bq        -3.4682105188     2.7130871203     1.1311557969
Bq        -3.4297907055     2.4675939466     0.1625191160
Bq        -3.4490006122     2.5903405335     0.6468374565
Bq        -3.4479778224     3.0995890105     0.6210509774

1
2
3
4
5
6
7
8
9
10
11
12
13
14
15
16
17
18
19
20
21
22
23
24
25
26
27
28
29
30
31
32
33
34
35
36
37
38
39
40
41
42
43
44
45
46
47
48
49
50
51
52
53
54
55
56
57
58
59
60
61
62
63
64
65
66
67
68
69
70
71
72
73
74
75
76
77
78
79
80
81
82
83
84
85
86
87
88
89
90
91
92
93
94
95
96
97
98
99
100
101
102
103
104
105
106
107
108
109
110
111
112
113
114
115
116
117
118
119
120
121
122
123
124
125
126
127
128
129
130
131
132
133
134
135
136
137
138
139
140
141
142
143
144
145
146
147
148
149
150
151
152
153
154
155
156
157
158
159
160
161
162
163
164
165
166
167
168
169
170
171
172
173
174
175
176
177
178
179
180
181
182
183
184
185
186
187
188
189
190
191
192
193
194
195
196
197
198
199
200
201
202
203
204
205
206
207
208
209
210
211
212
213
214
215
216
217
218
219
220
221
222
223
224
225
226
227
228
229
230
231
232
233
234
235
236

