%nproc=8
%mem=1000MB
# rb3lyp/6-311+g** NMR geom=connectivity

Title

0 1
C    -4.0500558   -0.5771862    0.8136712
H    -5.0263804   -1.0082727    1.0024760
C    -3.9381552    0.6617804    0.2400876
H    -4.8252424    1.2338890   -0.0111295
C    -2.6768410    1.2433246    0.0057578
C    -1.4974121    0.5051527    0.2848253
C    -1.6508332   -0.7338728    0.9404026
H    -0.7713646   -1.2730967    1.2633753
C    -2.8898548   -1.2624035    1.1994307
H    -2.9683706   -2.2124563    1.7152676
C    -2.5773185    2.5963696   -0.4192930
H    -3.4870728    3.1412239   -0.6474055
C    -1.3741895    3.2147896   -0.4364030
H    -1.2997315    4.2742019   -0.6578144
C    -0.1719488    2.4994090   -0.1734588
C    -0.2043917    1.1018437    0.0192689
C     1.0513491    3.2042560   -0.0676222
H     1.0427344    4.2819499   -0.1896997
C     2.1942091    2.5487446    0.2579577
H     3.1168527    3.0912848    0.4334727
C     2.2216473    1.1336562    0.2934990
C     1.0486931    0.3945528    0.0302412
C     3.4483363    0.4614633    0.5573939
H     4.3095794    1.0606054    0.8334846
C     3.5427346   -0.8855926    0.4749463
H     4.4731467   -1.3939704    0.7038822
C     2.4490052   -1.6474447   -0.0196319
C     1.2150704   -1.0057258   -0.3013573
C     0.2531113   -1.7434440   -1.0216591
H    -0.6541356   -1.2535051   -1.3462847
C     0.4494193   -3.0628597   -1.3413779
H    -0.3083162   -3.5944309   -1.9054060
C     1.6251726   -3.7207967   -0.9552541
H     1.7670048   -4.7687404   -1.1927019
C     2.6109872   -3.0144177   -0.3183050
H     3.5525612   -3.4902813   -0.0646367
Bq        -1.9191941062     4.4554892201    -0.0749051784
Bq        -1.9460879755     4.6273344417     0.6031404983
Bq        -1.9153521249     4.4309399027    -0.1717688465
Bq        -1.9499299568     4.6518837591     0.7000041664
Bq        -1.9115101435     4.4063905854    -0.2686325145
Bq        -1.9307200502     4.5291371722     0.2156858259
Bq        -1.4836025836    -0.2933051073     1.5588672847
Bq        -1.4759186209    -0.3424037421     1.3651399485
Bq        -1.4874445649    -0.2687557900     1.6557309528
Bq        -1.4720766396    -0.3669530595     1.2682762804
Bq        -1.4912865462    -0.2442064726     1.7525946208
Bq        -1.4682346582    -0.3915023768     1.1714126123
Bq        -1.4951285276    -0.2196571552     1.8494582889
Bq        -1.4643926769    -0.4160516942     1.0745489442
Bq        -1.4989705089    -0.1951078378     1.9463219570
Bq        -1.4605506956    -0.4406010116     0.9776852761
Bq        -1.4797606022    -0.3178544247     1.4620036166
Bq        -1.4787378124     0.1913940524     1.4362171375
Bq        -1.4710538498     0.1422954176     1.2424898014
Bq        -1.4825797938     0.2159433697     1.5330808056
Bq        -1.4672118685     0.1177461002     1.1456261333
Bq        -1.4864217751     0.2404926871     1.6299444737
Bq        -1.4633698871     0.0931967828     1.0487624652
Bq        -1.4902637564     0.2650420045     1.7268081418
Bq        -1.4595279058     0.0686474655     0.9518987971
Bq        -1.4941057378     0.2895913219     1.8236718099
Bq        -1.4556859245     0.0440981481     0.8550351290
Bq        -1.4748958311     0.1668447350     1.3393534694
Bq        -1.4738730413     0.6760932120     1.3135669904
Bq        -1.4661890787     0.6269945773     1.1198396542
Bq        -1.4777150226     0.7006425294     1.4104306585
Bq        -1.4623470973     0.6024452599     1.0229759861
Bq        -1.4815570040     0.7251918468     1.5072943266
Bq        -1.4585051160     0.5778959425     0.9261123180
Bq        -1.4853989853     0.7497411642     1.6041579947
Bq        -1.4546631347     0.5533466252     0.8292486499
Bq        -1.4892409666     0.7742904816     1.7010216628
Bq        -1.4508211533     0.5287973078     0.7323849819
Bq        -1.4700310600     0.6515438947     1.2167033223
Bq        -1.4690082702     1.1607923717     1.1909168433
Bq        -1.4613243075     1.1116937370     0.9971895071
Bq        -1.4728502515     1.1853416891     1.2877805114
Bq        -1.4574823262     1.0871444196     0.9003258390
Bq        -1.4766922329     1.2098910065     1.3846441794
Bq        -1.4536403449     1.0625951022     0.8034621709
Bq        -1.4805342142     1.2344403239     1.4815078475
Bq        -1.4497983636     1.0380457849     0.7065985028
Bq        -1.4843761955     1.2589896412     1.5783715156
Bq        -1.4459563822     1.0134964675     0.6097348347
Bq        -1.4651662889     1.1362430544     1.0940531752
Bq        -1.4641434991     1.6454915314     1.0682666961
Bq        -1.4564595364     1.5963928967     0.8745393599
Bq        -1.4679854804     1.6700408488     1.1651303642
Bq        -1.4526175551     1.5718435793     0.7776756919
Bq        -1.4718274617     1.6945901662     1.2619940323
Bq        -1.4487755738     1.5472942619     0.6808120238
Bq        -1.4756694431     1.7191394836     1.3588577004
Bq        -1.4449335924     1.5227449446     0.5839483557
Bq        -1.4795114244     1.7436888009     1.4557213685
Bq        -1.4410916111     1.4981956272     0.4870846876
Bq        -1.4603015177     1.6209422141     0.9714030280
Bq        -1.4592787280     2.1301906911     0.9456165490
Bq        -1.4515947653     2.0810920564     0.7518892128
Bq        -1.4631207093     2.1547400085     1.0424802171
Bq        -1.4477527840     2.0565427390     0.6550255447
Bq        -1.4669626906     2.1792893259     1.1393438852
Bq        -1.4439108026     2.0319934216     0.5581618766
Bq        -1.4708046719     2.2038386433     1.2362075533
Bq        -1.4400688213     2.0074441043     0.4612982085
Bq        -1.4746466533     2.2283879606     1.3330712213
Bq        -1.4362268400     1.9828947869     0.3644345404
Bq        -1.4554367466     2.1056413738     0.8487528809
Bq        -1.4544139568     2.6148898508     0.8229664019
Bq        -1.4467299942     2.5657912161     0.6292390657
Bq        -1.4582559382     2.6394391682     0.9198300699
Bq        -1.4428880128     2.5412418987     0.5323753976
Bq        -1.4620979195     2.6639884856     1.0166937380
Bq        -1.4390460315     2.5166925813     0.4355117295
Bq        -1.4659399008     2.6885378030     1.1135574061
Bq        -1.4352040502     2.4921432640     0.3386480614
Bq        -1.4697818821     2.7130871203     1.2104210742
Bq        -1.4313620689     2.4675939466     0.2417843933
Bq        -1.4505719755     2.5903405335     0.7261027338
Bq        -1.4495491857     3.0995890105     0.7003162547
Bq        -1.4418652231     3.0504903758     0.5065889185
Bq        -1.4533911670     3.1241383279     0.7971799228
Bq        -1.4380232417     3.0259410584     0.4097252504
Bq        -1.4572331484     3.1486876453     0.8940435909
Bq        -1.4341812604     3.0013917410     0.3128615824
Bq        -1.4610751297     3.1732369627     0.9909072590
Bq        -1.4303392791     2.9768424236     0.2159979143
Bq        -1.4649171110     3.1977862800     1.0877709271
Bq        -1.4264972977     2.9522931063     0.1191342462
Bq        -1.4457072044     3.0750396931     0.6034525866
Bq        -1.4446844146     3.5842881702     0.5776661076
Bq        -1.4370004519     3.5351895355     0.3839387714
Bq        -1.4485263959     3.6088374876     0.6745297757
Bq        -1.4331584706     3.5106402181     0.2870751033
Bq        -1.4523683772     3.6333868050     0.7713934438
Bq        -1.4293164893     3.4860909007     0.1902114352
Bq        -1.4562103586     3.6579361223     0.8682571119
Bq        -1.4254745079     3.4615415833     0.0933477671
Bq        -1.4600523399     3.6824854397     0.9651207799
Bq        -1.4216325266     3.4369922660    -0.0035159010
Bq        -1.4408424333     3.5597388528     0.4808024395
Bq        -1.4398196435     4.0689873299     0.4550159604
Bq        -1.4321356808     4.0198886952     0.2612886243
Bq        -1.4436616248     4.0935366473     0.5518796285
Bq        -1.4282936995     3.9953393778     0.1644249562
Bq        -1.4475036061     4.1180859647     0.6487432966
Bq        -1.4244517181     3.9707900604     0.0675612881
Bq        -1.4513455875     4.1426352820     0.7456069647
Bq        -1.4206097368     3.9462407430    -0.0293023800
Bq        -1.4551875688     4.1671845994     0.8424706328
Bq        -1.4167677555     3.9216914257    -0.1261660481
Bq        -1.4359776621     4.0444380125     0.3581522924
Bq        -1.4349548723     4.5536864896     0.3323658133
Bq        -1.4272709097     4.5045878549     0.1386384771
Bq        -1.4387968537     4.5782358070     0.4292294814
Bq        -1.4234289284     4.4800385375     0.0417748090
Bq        -1.4426388350     4.6027851244     0.5260931495
Bq        -1.4195869470     4.4554892201    -0.0550888590
Bq        -1.4464808163     4.6273344417     0.6229568176
Bq        -1.4157449657     4.4309399027    -0.1519525271
Bq        -1.4503227977     4.6518837591     0.7198204857
Bq        -1.4119029844     4.4063905854    -0.2488161952
Bq        -1.4311128910     4.5291371722     0.2355021452
Bq        -0.9839954244    -0.2933051073     1.5786836040
Bq        -0.9763114617    -0.3424037421     1.3849562678
Bq        -0.9878374057    -0.2687557900     1.6755472721
Bq        -0.9724694804    -0.3669530595     1.2880925997
Bq        -0.9916793871    -0.2442064726     1.7724109402
Bq        -0.9686274991    -0.3915023768     1.1912289316
Bq        -0.9955213684    -0.2196571552     1.8692746083
Bq        -0.9647855178    -0.4160516942     1.0943652635
Bq        -0.9993633497    -0.1951078378     1.9661382763
Bq        -0.9609435364    -0.4406010116     0.9975015954
Bq        -0.9801534431    -0.3178544247     1.4818199359
Bq        -0.9791306533     0.1913940524     1.4560334569
Bq        -0.9714466906     0.1422954176     1.2623061207
Bq        -0.9829726346     0.2159433697     1.5528971249
Bq        -0.9676047093     0.1177461002     1.1654424526
Bq        -0.9868146159     0.2404926871     1.6497607930
Bq        -0.9637627280     0.0931967828     1.0685787845
Bq        -0.9906565973     0.2650420045     1.7466244611
Bq        -0.9599207466     0.0686474655     0.9717151164
Bq        -0.9944985786     0.2895913219     1.8434881292
Bq        -0.9560787653     0.0440981481     0.8748514483
Bq        -0.9752886719     0.1668447350     1.3591697888
Bq        -0.9742658822     0.6760932120     1.3333833097
Bq        -0.9665819195     0.6269945773     1.1396559735
Bq        -0.9781078635     0.7006425294     1.4302469778
Bq        -0.9627399382     0.6024452599     1.0427923054
Bq        -0.9819498448     0.7251918468     1.5271106459
Bq        -0.9588979568     0.5778959425     0.9459286374
Bq        -0.9857918261     0.7497411642     1.6239743140
Bq        -0.9550559755     0.5533466252     0.8490649693
Bq        -0.9896338075     0.7742904816     1.7208379821
Bq        -0.9512139942     0.5287973078     0.7522013012
Bq        -0.9704239008     0.6515438947     1.2365196416
Bq        -0.9694011110     1.1607923717     1.2107331626
Bq        -0.9617171484     1.1116937370     1.0170058264
Bq        -0.9732430924     1.1853416891     1.3075968307
Bq        -0.9578751670     1.0871444196     0.9201421583
Bq        -0.9770850737     1.2098910065     1.4044604988
Bq        -0.9540331857     1.0625951022     0.8232784902
Bq        -0.9809270550     1.2344403239     1.5013241669
Bq        -0.9501912044     1.0380457849     0.7264148221
Bq        -0.9847690364     1.2589896412     1.5981878349
Bq        -0.9463492231     1.0134964675     0.6295511540
Bq        -0.9655591297     1.1362430544     1.1138694945
Bq        -0.9645363399     1.6454915314     1.0880830154
Bq        -0.9568523773     1.5963928967     0.8943556793
Bq        -0.9683783212     1.6700408488     1.1849466835
Bq        -0.9530103959     1.5718435793     0.7974920112
Bq        -0.9722203026     1.6945901662     1.2818103516
Bq        -0.9491684146     1.5472942619     0.7006283431
Bq        -0.9760622839     1.7191394836     1.3786740197
Bq        -0.9453264333     1.5227449446     0.6037646750
Bq        -0.9799042652     1.7436888009     1.4755376878
Bq        -0.9414844519     1.4981956272     0.5069010069
Bq        -0.9606943586     1.6209422141     0.9912193474
Bq        -0.9596715688     2.1301906911     0.9654328683
Bq        -0.9519876061     2.0810920564     0.7717055321
Bq        -0.9635135501     2.1547400085     1.0622965364
Bq        -0.9481456248     2.0565427390     0.6748418640
Bq        -0.9673555314     2.1792893259     1.1591602045
Bq        -0.9443036435     2.0319934216     0.5779781960
Bq        -0.9711975128     2.2038386433     1.2560238726
Bq        -0.9404616621     2.0074441043     0.4811145279
Bq        -0.9750394941     2.2283879606     1.3528875407
Bq        -0.9366196808     1.9828947869     0.3842508598
Bq        -0.9558295875     2.1056413738     0.8685692002
Bq        -0.9548067977     2.6148898508     0.8427827212
Bq        -0.9471228350     2.5657912161     0.6490553850
Bq        -0.9586487790     2.6394391682     0.9396463893
Bq        -0.9432808537     2.5412418987     0.5521917169
Bq        -0.9624907603     2.6639884856     1.0365100574
Bq        -0.9394388724     2.5166925813     0.4553280488
Bq        -0.9663327417     2.6885378030     1.1333737254

1
2
3
4
5
6
7
8
9
10
11
12
13
14
15
16
17
18
19
20
21
22
23
24
25
26
27
28
29
30
31
32
33
34
35
36
37
38
39
40
41
42
43
44
45
46
47
48
49
50
51
52
53
54
55
56
57
58
59
60
61
62
63
64
65
66
67
68
69
70
71
72
73
74
75
76
77
78
79
80
81
82
83
84
85
86
87
88
89
90
91
92
93
94
95
96
97
98
99
100
101
102
103
104
105
106
107
108
109
110
111
112
113
114
115
116
117
118
119
120
121
122
123
124
125
126
127
128
129
130
131
132
133
134
135
136
137
138
139
140
141
142
143
144
145
146
147
148
149
150
151
152
153
154
155
156
157
158
159
160
161
162
163
164
165
166
167
168
169
170
171
172
173
174
175
176
177
178
179
180
181
182
183
184
185
186
187
188
189
190
191
192
193
194
195
196
197
198
199
200
201
202
203
204
205
206
207
208
209
210
211
212
213
214
215
216
217
218
219
220
221
222
223
224
225
226
227
228
229
230
231
232
233
234
235
236

