%nproc=8
%mem=1000MB
# rb3lyp/6-311+g** NMR geom=connectivity

Title

0 1
C    -4.0500558   -0.5771862    0.8136712
H    -5.0263804   -1.0082727    1.0024760
C    -3.9381552    0.6617804    0.2400876
H    -4.8252424    1.2338890   -0.0111295
C    -2.6768410    1.2433246    0.0057578
C    -1.4974121    0.5051527    0.2848253
C    -1.6508332   -0.7338728    0.9404026
H    -0.7713646   -1.2730967    1.2633753
C    -2.8898548   -1.2624035    1.1994307
H    -2.9683706   -2.2124563    1.7152676
C    -2.5773185    2.5963696   -0.4192930
H    -3.4870728    3.1412239   -0.6474055
C    -1.3741895    3.2147896   -0.4364030
H    -1.2997315    4.2742019   -0.6578144
C    -0.1719488    2.4994090   -0.1734588
C    -0.2043917    1.1018437    0.0192689
C     1.0513491    3.2042560   -0.0676222
H     1.0427344    4.2819499   -0.1896997
C     2.1942091    2.5487446    0.2579577
H     3.1168527    3.0912848    0.4334727
C     2.2216473    1.1336562    0.2934990
C     1.0486931    0.3945528    0.0302412
C     3.4483363    0.4614633    0.5573939
H     4.3095794    1.0606054    0.8334846
C     3.5427346   -0.8855926    0.4749463
H     4.4731467   -1.3939704    0.7038822
C     2.4490052   -1.6474447   -0.0196319
C     1.2150704   -1.0057258   -0.3013573
C     0.2531113   -1.7434440   -1.0216591
H    -0.6541356   -1.2535051   -1.3462847
C     0.4494193   -3.0628597   -1.3413779
H    -0.3083162   -3.5944309   -1.9054060
C     1.6251726   -3.7207967   -0.9552541
H     1.7670048   -4.7687404   -1.1927019
C     2.6109872   -3.0144177   -0.3183050
H     3.5525612   -3.4902813   -0.0646367
Bq         2.6312672950     0.1513657160     0.9444944513
Bq         2.4001575161     0.0233167848     1.8048384182
Bq         2.6569461593     0.1655933750     0.8489006772
Bq         2.5285518377     0.0944550799     1.3268695477
Bq         2.4844177207     0.5751408910     1.4911660196
Bq         2.5357754493     0.6035962091     1.2999784714
Bq         2.4587388563     0.5609132320     1.5867597937
Bq         2.5614543136     0.6178238681     1.2043846973
Bq         2.4330599920     0.5466855730     1.6823535678
Bq         2.5871331780     0.6320515272     1.1087909232
Bq         2.4073811277     0.5324579140     1.7779473419
Bq         2.6128120423     0.6462791862     1.0131971491
Bq         2.3817022634     0.5182302549     1.8735411160
Bq         2.6384909066     0.6605068452     0.9176033750
Bq         2.5100965850     0.5893685501     1.3955722455
Bq         2.4659624680     1.0700543612     1.5598687174
Bq         2.5173201966     1.0985096793     1.3686811692
Bq         2.4402836037     1.0558267022     1.6554624915
Bq         2.5429990610     1.1127373383     1.2730873951
Bq         2.4146047393     1.0415990432     1.7510562656
Bq         2.5686779253     1.1269649973     1.1774936210
Bq         2.3889258750     1.0273713841     1.8466500397
Bq         2.5943567896     1.1411926564     1.0818998469
Bq         2.3632470107     1.0131437251     1.9422438137
Bq         2.6200356539     1.1554203154     0.9863060728
Bq         2.4916413323     1.0842820203     1.4642749433
Bq         2.4475072153     1.5649678314     1.6285714152
Bq         2.4988649440     1.5934231495     1.4373838670
Bq         2.4218283510     1.5507401724     1.7241651893
Bq         2.5245438083     1.6076508085     1.3417900929
Bq         2.3961494867     1.5365125133     1.8197589634
Bq         2.5502226726     1.6218784675     1.2461963188
Bq         2.3704706223     1.5222848543     1.9153527374
Bq         2.5759015369     1.6361061265     1.1506025447
Bq         2.3447917580     1.5080571953     2.0109465115
Bq         2.6015804012     1.6503337856     1.0550087706
Bq         2.4731860796     1.5791954904     1.5329776411
Bq         2.4290519626     2.0598813016     1.6972741130
Bq         2.4804096913     2.0883366196     1.5060865648
Bq         2.4033730983     2.0456536426     1.7928678871
Bq         2.5060885556     2.1025642787     1.4104927907
Bq         2.3776942340     2.0314259835     1.8884616611
Bq         2.5317674199     2.1167919377     1.3148990166
Bq         2.3520153697     2.0171983245     1.9840554352
Bq         2.5574462842     2.1310195967     1.2193052425
Bq         2.3263365053     2.0029706655     2.0796492093
Bq         2.5831251486     2.1452472558     1.1237114684
Bq         2.4547308270     2.0741089606     1.6016803389
Bq         3.0964857396    -2.8892534002     1.1399610440
Bq         3.1478434683    -2.8607980821     0.9487734958
Bq         3.0708068753    -2.9034810592     1.2355548181
Bq         3.1735223326    -2.8465704231     0.8531797217
Bq         3.0451280110    -2.9177087183     1.3311485921
Bq         3.1992011969    -2.8323427641     0.7575859476
Bq         3.0194491467    -2.9319363773     1.4267423662
Bq         3.2248800612    -2.8181151051     0.6619921735
Bq         2.9937702823    -2.9461640363     1.5223361403
Bq         3.2505589256    -2.8038874460     0.5663983994
Bq         3.1221646040    -2.8750257412     1.0443672699
Bq         3.0780304870    -2.3943399300     1.2086637418
Bq         3.1293882156    -2.3658846120     1.0174761936
Bq         3.0523516226    -2.4085675891     1.3042575158
Bq         3.1550670799    -2.3516569529     0.9218824195
Bq         3.0266727583    -2.4227952481     1.3998512899
Bq         3.1807459442    -2.3374292939     0.8262886454
Bq         3.0009938940    -2.4370229071     1.4954450640
Bq         3.2064248086    -2.3232016349     0.7306948713
Bq         2.9753150297    -2.4512505661     1.5910388381
Bq         3.2321036729    -2.3089739759     0.6351010972
Bq         3.1037093513    -2.3801122710     1.1130699677
Bq         3.0595752343    -1.8994264598     1.2773664395
Bq         3.1109329629    -1.8709711418     1.0861788914
Bq         3.0338963700    -1.9136541189     1.3729602136
Bq         3.1366118272    -1.8567434828     0.9905851173
Bq         3.0082175056    -1.9278817779     1.4685539877
Bq         3.1622906916    -1.8425158237     0.8949913432
Bq         2.9825386413    -1.9421094369     1.5641477618
Bq         3.1879695559    -1.8282881647     0.7993975691
Bq         2.9568597770    -1.9563370960     1.6597415359
Bq         3.2136484202    -1.8140605057     0.7038037950
Bq         3.0852540986    -1.8851988008     1.1817726655
Bq         3.0411199816    -1.4045129897     1.3460691373
Bq         3.0924777102    -1.3760576716     1.1548815892
Bq         3.0154411173    -1.4187406487     1.4416629114
Bq         3.1181565746    -1.3618300126     1.0592878151
Bq         2.9897622530    -1.4329683077     1.5372566855
Bq         3.1438354389    -1.3476023536     0.9636940410
Bq         2.9640833886    -1.4471959668     1.6328504596
Bq         3.1695143032    -1.3333746945     0.8681002669
Bq         2.9384045243    -1.4614236258     1.7284442337
Bq         3.1951931675    -1.3191470355     0.7725064928
Bq         3.0667988459    -1.3902853306     1.2504753632
Bq         3.0226647289    -0.9095995195     1.4147718351
Bq         3.0740224576    -0.8811442014     1.2235842869
Bq         2.9969858646    -0.9238271785     1.5103656092
Bq         3.0997013219    -0.8669165424     1.1279905129
Bq         2.9713070003    -0.9380548375     1.6059593833
Bq         3.1253801862    -0.8526888834     1.0323967388
Bq         2.9456281360    -0.9522824966     1.7015531574
Bq         3.1510590505    -0.8384612243     0.9368029647
Bq         2.9199492716    -0.9665101556     1.7971469315
Bq         3.1767379149    -0.8242335653     0.8412091906
Bq         3.0483435932    -0.8953718605     1.3191780610
Bq         3.0042094763    -0.4146860493     1.4834745329
Bq         3.0555672049    -0.3862307313     1.2922869847
Bq         2.9785306119    -0.4289137083     1.5790683070
Bq         3.0812460692    -0.3720030722     1.1966932106
Bq         2.9528517476    -0.4431413674     1.6746620811
Bq         3.1069249335    -0.3577754132     1.1010994366
Bq         2.9271728833    -0.4573690264     1.7702558552
Bq         3.1326037979    -0.3435477542     1.0055056625
Bq         2.9014940190    -0.4715966854     1.8658496293
Bq         3.1582826622    -0.3293200951     0.9099118884
Bq         3.0298883406    -0.4004583903     1.3878807588
Bq         2.9857542236     0.0802274209     1.5521772307
Bq         3.0371119522     0.1086827389     1.3609896825
Bq         2.9600753593     0.0659997618     1.6477710048
Bq         3.0627908165     0.1229103980     1.2653959084
Bq         2.9343964949     0.0517721028     1.7433647789
Bq         3.0884696809     0.1371380570     1.1698021343
Bq         2.9087176306     0.0375444438     1.8389585530
Bq         3.1141485452     0.1513657160     1.0742083603
Bq         2.8830387663     0.0233167848     1.9345523271
Bq         3.1398274095     0.1655933750     0.9786145862
Bq         3.0114330879     0.0944550799     1.4565834566
Bq         2.9672989709     0.5751408910     1.6208799285
Bq         3.0186566995     0.6035962091     1.4296923803
Bq         2.9416201066     0.5609132320     1.7164737026
Bq         3.0443355639     0.6178238681     1.3340986062
Bq         2.9159412423     0.5466855730     1.8120674767
Bq         3.0700144282     0.6320515272     1.2385048321
Bq         2.8902623779     0.5324579140     1.9076612508
Bq         3.0956932925     0.6462791862     1.1429110580
Bq         2.8645835136     0.5182302549     2.0032550249
Bq         3.1213721568     0.6605068452     1.0473172840
Bq         2.9929778352     0.5893685501     1.5252861544
Bq         2.9488437182     1.0700543612     1.6895826263
Bq         3.0002014469     1.0985096793     1.4983950781
Bq         2.9231648539     1.0558267022     1.7851764004
Bq         3.0258803112     1.1127373383     1.4028013040
Bq         2.8974859896     1.0415990432     1.8807701745
Bq         3.0515591755     1.1269649973     1.3072075299
Bq         2.8718071253     1.0273713841     1.9763639486
Bq         3.0772380398     1.1411926564     1.2116137558
Bq         2.8461282609     1.0131437251     2.0719577227
Bq         3.1029169042     1.1554203154     1.1160199817
Bq         2.9745225825     1.0842820203     1.5939888522
Bq         2.9303884655     1.5649678314     1.7582853241
Bq         2.9817461942     1.5934231495     1.5670977759
Bq         2.9047096012     1.5507401724     1.8538790982
Bq         3.0074250585     1.6076508085     1.4715040018
Bq         2.8790307369     1.5365125133     1.9494728723
Bq         3.0331039228     1.6218784675     1.3759102277
Bq         2.8533518726     1.5222848543     2.0450666464
Bq         3.0587827872     1.6361061265     1.2803164536
Bq         2.8276730083     1.5080571953     2.1406604205
Bq         3.0844616515     1.6503337856     1.1847226795
Bq         2.9560673299     1.5791954904     1.6626915500
Bq         2.9119332129     2.0598813016     1.8269880219
Bq         2.9632909415     2.0883366196     1.6358004737
Bq         2.8862543485     2.0456536426     1.9225817960
Bq         2.9889698058     2.1025642787     1.5402066996
Bq         2.8605754842     2.0314259835     2.0181755701
Bq         3.0146486702     2.1167919377     1.4446129255
Bq         2.8348966199     2.0171983245     2.1137693442
Bq         3.0403275345     2.1310195967     1.3490191514
Bq         2.8092177556     2.0029706655     2.2093631183
Bq         3.0660063988     2.1452472558     1.2534253773
Bq         2.9376120772     2.0741089606     1.7313942478
Bq         3.5793669899    -2.8892534002     1.2696749529
Bq         3.6307247185    -2.8607980821     1.0784874047
Bq         3.5536881255    -2.9034810592     1.3652687270
Bq         3.6564035828    -2.8465704231     0.9828936306
Bq         3.5280092612    -2.9177087183     1.4608625011
Bq         3.6820824472    -2.8323427641     0.8872998565
Bq         3.5023303969    -2.9319363773     1.5564562752
Bq         3.7077613115    -2.8181151051     0.7917060824
Bq         3.4766515326    -2.9461640363     1.6520500493
Bq         3.7334401758    -2.8038874460     0.6961123083
Bq         3.6050458542    -2.8750257412     1.1740811788
Bq         3.5609117372    -2.3943399300     1.3383776507
Bq         3.6122694658    -2.3658846120     1.1471901025
Bq         3.5352328729    -2.4085675891     1.4339714248
Bq         3.6379483302    -2.3516569529     1.0515963284
Bq         3.5095540085    -2.4227952481     1.5295651989
Bq         3.6636271945    -2.3374292939     0.9560025543
Bq         3.4838751442    -2.4370229071     1.6251589730
Bq         3.6893060588    -2.3232016349     0.8604087802
Bq         3.4581962799    -2.4512505661     1.7207527471
Bq         3.7149849231    -2.3089739759     0.7648150061
Bq         3.5865906015    -2.3801122710     1.2427838766
Bq         3.5424564845    -1.8994264598     1.4070803485
Bq         3.5938142132    -1.8709711418     1.2158928003
Bq         3.5167776202    -1.9136541189     1.5026741226
Bq         3.6194930775    -1.8567434828     1.1202990262
Bq         3.4910987559    -1.9278817779     1.5982678967
Bq         3.6451719418    -1.8425158237     1.0247052521
Bq         3.4654198915    -1.9421094369     1.6938616708
Bq         3.6708508061    -1.8282881647     0.9291114780
Bq         3.4397410272    -1.9563370960     1.7894554449

1
2
3
4
5
6
7
8
9
10
11
12
13
14
15
16
17
18
19
20
21
22
23
24
25
26
27
28
29
30
31
32
33
34
35
36
37
38
39
40
41
42
43
44
45
46
47
48
49
50
51
52
53
54
55
56
57
58
59
60
61
62
63
64
65
66
67
68
69
70
71
72
73
74
75
76
77
78
79
80
81
82
83
84
85
86
87
88
89
90
91
92
93
94
95
96
97
98
99
100
101
102
103
104
105
106
107
108
109
110
111
112
113
114
115
116
117
118
119
120
121
122
123
124
125
126
127
128
129
130
131
132
133
134
135
136
137
138
139
140
141
142
143
144
145
146
147
148
149
150
151
152
153
154
155
156
157
158
159
160
161
162
163
164
165
166
167
168
169
170
171
172
173
174
175
176
177
178
179
180
181
182
183
184
185
186
187
188
189
190
191
192
193
194
195
196
197
198
199
200
201
202
203
204
205
206
207
208
209
210
211
212
213
214
215
216
217
218
219
220
221
222
223
224
225
226
227
228
229
230
231
232
233
234
235
236

