%nproc=8
%mem=1000MB
# rb3lyp/6-311+g** NMR geom=connectivity

Title

0 1
C    -4.0500558   -0.5771862    0.8136712
H    -5.0263804   -1.0082727    1.0024760
C    -3.9381552    0.6617804    0.2400876
H    -4.8252424    1.2338890   -0.0111295
C    -2.6768410    1.2433246    0.0057578
C    -1.4974121    0.5051527    0.2848253
C    -1.6508332   -0.7338728    0.9404026
H    -0.7713646   -1.2730967    1.2633753
C    -2.8898548   -1.2624035    1.1994307
H    -2.9683706   -2.2124563    1.7152676
C    -2.5773185    2.5963696   -0.4192930
H    -3.4870728    3.1412239   -0.6474055
C    -1.3741895    3.2147896   -0.4364030
H    -1.2997315    4.2742019   -0.6578144
C    -0.1719488    2.4994090   -0.1734588
C    -0.2043917    1.1018437    0.0192689
C     1.0513491    3.2042560   -0.0676222
H     1.0427344    4.2819499   -0.1896997
C     2.1942091    2.5487446    0.2579577
H     3.1168527    3.0912848    0.4334727
C     2.2216473    1.1336562    0.2934990
C     1.0486931    0.3945528    0.0302412
C     3.4483363    0.4614633    0.5573939
H     4.3095794    1.0606054    0.8334846
C     3.5427346   -0.8855926    0.4749463
H     4.4731467   -1.3939704    0.7038822
C     2.4490052   -1.6474447   -0.0196319
C     1.2150704   -1.0057258   -0.3013573
C     0.2531113   -1.7434440   -1.0216591
H    -0.6541356   -1.2535051   -1.3462847
C     0.4494193   -3.0628597   -1.3413779
H    -0.3083162   -3.5944309   -1.9054060
C     1.6251726   -3.7207967   -0.9552541
H     1.7670048   -4.7687404   -1.1927019
C     2.6109872   -3.0144177   -0.3183050
H     3.5525612   -3.4902813   -0.0646367
Bq         0.1213691981     0.6035962091     0.6514089267
Bq         0.0443326052     0.5609132320     0.9381902489
Bq         0.1470480625     0.6178238681     0.5558151526
Bq         0.0186537409     0.5466855730     1.0337840230
Bq         0.1727269268     0.6320515272     0.4602213785
Bq        -0.0070251235     0.5324579140     1.1293777971
Bq         0.1984057911     0.6462791862     0.3646276044
Bq        -0.0327039878     0.5182302549     1.2249715712
Bq         0.2240846554     0.6605068452     0.2690338303
Bq         0.0956903338     0.5893685501     0.7470027008
Bq         0.0515562168     1.0700543612     0.9112991726
Bq         0.1029139455     1.0985096793     0.7201116245
Bq         0.0258773525     1.0558267022     1.0068929467
Bq         0.1285928098     1.1127373383     0.6245178504
Bq         0.0001984882     1.0415990432     1.1024867208
Bq         0.1542716741     1.1269649973     0.5289240763
Bq        -0.0254803761     1.0273713841     1.1980804949
Bq         0.1799505384     1.1411926564     0.4333303022
Bq        -0.0511592405     1.0131437251     1.2936742690
Bq         0.2056294028     1.1554203154     0.3377365281
Bq         0.0772350811     1.0842820203     0.8157053986
Bq         0.0331009641     1.5649678314     0.9800018704
Bq         0.0844586928     1.5934231495     0.7888143223
Bq         0.0074220998     1.5507401724     1.0755956445
Bq         0.1101375571     1.6076508085     0.6932205482
Bq        -0.0182567645     1.5365125133     1.1711894186
Bq         0.1358164214     1.6218784675     0.5976267741
Bq        -0.0439356288     1.5222848543     1.2667831927
Bq         0.1614952858     1.6361061265     0.5020330000
Bq        -0.0696144931     1.5080571953     1.3623769668
Bq         0.1871741501     1.6503337856     0.4064392259
Bq         0.0587798285     1.5791954904     0.8844080963
Bq         0.0146457115     2.0598813016     1.0487045682
Bq         0.0660034401     2.0883366196     0.8575170200
Bq        -0.0110331529     2.0456536426     1.1442983423
Bq         0.0916823044     2.1025642787     0.7619232460
Bq        -0.0367120172     2.0314259835     1.2398921164
Bq         0.1173611688     2.1167919377     0.6663294719
Bq        -0.0623908815     2.0171983245     1.3354858905
Bq         0.1430400331     2.1310195967     0.5707356978
Bq        -0.0880697458     2.0029706655     1.4310796646
Bq         0.1687188974     2.1452472558     0.4751419237
Bq         0.0403245758     2.0741089606     0.9531107941
Bq         0.6820794885    -2.8892534002     0.4913914992
Bq         0.7334372171    -2.8607980821     0.3002039510
Bq         0.6564006241    -2.9034810592     0.5869852733
Bq         0.7591160814    -2.8465704231     0.2046101770
Bq         0.6307217598    -2.9177087183     0.6825790474
Bq         0.7847949458    -2.8323427641     0.1090164029
Bq         0.6050428955    -2.9319363773     0.7781728215
Bq         0.8104738101    -2.8181151051     0.0134226288
Bq         0.5793640312    -2.9461640363     0.8737665956
Bq         0.8361526744    -2.8038874460    -0.0821711453
Bq         0.7077583528    -2.8750257412     0.3957977251
Bq         0.6636242358    -2.3943399300     0.5600941970
Bq         0.7149819644    -2.3658846120     0.3689066488
Bq         0.6379453715    -2.4085675891     0.6556879711
Bq         0.7406608288    -2.3516569529     0.2733128747
Bq         0.6122665071    -2.4227952481     0.7512817452
Bq         0.7663396931    -2.3374292939     0.1777191007
Bq         0.5865876428    -2.4370229071     0.8468755193
Bq         0.7920185574    -2.3232016349     0.0821253266
Bq         0.5609087785    -2.4512505661     0.9424692934
Bq         0.8176974217    -2.3089739759    -0.0134684475
Bq         0.6893031001    -2.3801122710     0.4645004229
Bq         0.6451689831    -1.8994264598     0.6287968948
Bq         0.6965267118    -1.8709711418     0.4376093466
Bq         0.6194901188    -1.9136541189     0.7243906689
Bq         0.7222055761    -1.8567434828     0.3420155725
Bq         0.5938112545    -1.9278817779     0.8199844430
Bq         0.7478844404    -1.8425158237     0.2464217984
Bq         0.5681323902    -1.9421094369     0.9155782171
Bq         0.7735633047    -1.8282881647     0.1508280244
Bq         0.5424535258    -1.9563370960     1.0111719912
Bq         0.7992421691    -1.8140605057     0.0552342503
Bq         0.6708478474    -1.8851988008     0.5332031207
Bq         0.6267137304    -1.4045129897     0.6974995926
Bq         0.6780714591    -1.3760576716     0.5063120444
Bq         0.6010348661    -1.4187406487     0.7930933667
Bq         0.7037503234    -1.3618300126     0.4107182703
Bq         0.5753560018    -1.4329683077     0.8886871408
Bq         0.7294291877    -1.3476023536     0.3151244962
Bq         0.5496771375    -1.4471959668     0.9842809149
Bq         0.7551080521    -1.3333746945     0.2195307221
Bq         0.5239982732    -1.4614236258     1.0798746890
Bq         0.7807869164    -1.3191470355     0.1239369481
Bq         0.6523925948    -1.3902853306     0.6019058185
Bq         0.6082584778    -0.9095995195     0.7662022904
Bq         0.6596162064    -0.8811442014     0.5750147422
Bq         0.5825796134    -0.9238271785     0.8617960645
Bq         0.6852950707    -0.8669165424     0.4794209681
Bq         0.5569007491    -0.9380548375     0.9573898386
Bq         0.7109739351    -0.8526888834     0.3838271940
Bq         0.5312218848    -0.9522824966     1.0529836127
Bq         0.7366527994    -0.8384612243     0.2882334199
Bq         0.5055430205    -0.9665101556     1.1485773868
Bq         0.7623316637    -0.8242335653     0.1926396458
Bq         0.6339373421    -0.8953718605     0.6706085163
Bq         0.5898032251    -0.4146860493     0.8349049882
Bq         0.6411609537    -0.3862307313     0.6437174400
Bq         0.5641243608    -0.4289137083     0.9304987623
Bq         0.6668398181    -0.3720030722     0.5481236659
Bq         0.5384454964    -0.4431413674     1.0260925364
Bq         0.6925186824    -0.3577754132     0.4525298918
Bq         0.5127666321    -0.4573690264     1.1216863105
Bq         0.7181975467    -0.3435477542     0.3569361177
Bq         0.4870877678    -0.4715966854     1.2172800846
Bq         0.7438764110    -0.3293200951     0.2613423436
Bq         0.6154820894    -0.4004583903     0.7393112141
Bq         0.5713479724     0.0802274209     0.9036076860
Bq         0.6227057011     0.1086827389     0.7124201378
Bq         0.5456691081     0.0659997618     0.9992014601
Bq         0.6483845654     0.1229103980     0.6168263637
Bq         0.5199902438     0.0517721028     1.0947952342
Bq         0.6740634297     0.1371380570     0.5212325896
Bq         0.4943113794     0.0375444438     1.1903890083
Bq         0.6997422940     0.1513657160     0.4256388155
Bq         0.4686325151     0.0233167848     1.2859827824
Bq         0.7254211583     0.1655933750     0.3300450414
Bq         0.5970268367     0.0944550799     0.8080139119
Bq         0.5528927197     0.5751408910     0.9723103838
Bq         0.6042504484     0.6035962091     0.7811228356
Bq         0.5272138554     0.5609132320     1.0679041579
Bq         0.6299293127     0.6178238681     0.6855290615
Bq         0.5015349911     0.5466855730     1.1634979320
Bq         0.6556081770     0.6320515272     0.5899352874
Bq         0.4758561268     0.5324579140     1.2590917061
Bq         0.6812870413     0.6462791862     0.4943415133
Bq         0.4501772624     0.5182302549     1.3546854802
Bq         0.7069659057     0.6605068452     0.3987477392
Bq         0.5785715841     0.5893685501     0.8767166097
Bq         0.5344374671     1.0700543612     1.0410130816
Bq         0.5857951957     1.0985096793     0.8498255334
Bq         0.5087586027     1.0558267022     1.1366068557
Bq         0.6114740600     1.1127373383     0.7542317593
Bq         0.4830797384     1.0415990432     1.2322006298
Bq         0.6371529243     1.1269649973     0.6586379852
Bq         0.4574008741     1.0273713841     1.3277944039
Bq         0.6628317887     1.1411926564     0.5630442111
Bq         0.4317220098     1.0131437251     1.4233881780
Bq         0.6885106530     1.1554203154     0.4674504370
Bq         0.5601163314     1.0842820203     0.9454193075
Bq         0.5159822144     1.5649678314     1.1097157794
Bq         0.5673399430     1.5934231495     0.9185282312
Bq         0.4903033501     1.5507401724     1.2053095535
Bq         0.5930188073     1.6076508085     0.8229344571
Bq         0.4646244857     1.5365125133     1.3009033276
Bq         0.6186976717     1.6218784675     0.7273406830
Bq         0.4389456214     1.5222848543     1.3964971017
Bq         0.6443765360     1.6361061265     0.6317469089
Bq         0.4132667571     1.5080571953     1.4920908758
Bq         0.6700554003     1.6503337856     0.5361531348
Bq         0.5416610787     1.5791954904     1.0141220053
Bq         0.4975269617     2.0598813016     1.1784184772
Bq         0.5488846903     2.0883366196     0.9872309290
Bq         0.4718480974     2.0456536426     1.2740122513
Bq         0.5745635547     2.1025642787     0.8916371549
Bq         0.4461692331     2.0314259835     1.3696060254
Bq         0.6002424190     2.1167919377     0.7960433808
Bq         0.4204903687     2.0171983245     1.4651997995
Bq         0.6259212833     2.1310195967     0.7004496067
Bq         0.3948115044     2.0029706655     1.5607935736
Bq         0.6516001476     2.1452472558     0.6048558326
Bq         0.5232058260     2.0741089606     1.0828247031
Bq         1.1649607387    -2.8892534002     0.6211054082
Bq         1.2163184673    -2.8607980821     0.4299178600
Bq         1.1392818744    -2.9034810592     0.7166991823
Bq         1.2419973317    -2.8465704231     0.3343240859
Bq         1.1136030101    -2.9177087183     0.8122929564
Bq         1.2676761960    -2.8323427641     0.2387303118
Bq         1.0879241457    -2.9319363773     0.9078867305
Bq         1.2933550603    -2.8181151051     0.1431365377
Bq         1.0622452814    -2.9461640363     1.0034805046
Bq         1.3190339246    -2.8038874460     0.0475427636
Bq         1.1906396030    -2.8750257412     0.5255116341
Bq         1.1465054860    -2.3943399300     0.6898081060
Bq         1.1978632147    -2.3658846120     0.4986205578
Bq         1.1208266217    -2.4085675891     0.7854018801
Bq         1.2235420790    -2.3516569529     0.4030267837
Bq         1.0951477574    -2.4227952481     0.8809956542
Bq         1.2492209433    -2.3374292939     0.3074330096
Bq         1.0694688931    -2.4370229071     0.9765894283
Bq         1.2748998076    -2.3232016349     0.2118392355
Bq         1.0437900287    -2.4512505661     1.0721832024
Bq         1.3005786720    -2.3089739759     0.1162454614
Bq         1.1721843504    -2.3801122710     0.5942143319
Bq         1.1280502334    -1.8994264598     0.7585108038
Bq         1.1794079620    -1.8709711418     0.5673232556
Bq         1.1023713690    -1.9136541189     0.8541045779
Bq         1.2050868263    -1.8567434828     0.4717294815
Bq         1.0766925047    -1.9278817779     0.9496983520
Bq         1.2307656906    -1.8425158237     0.3761357074
Bq         1.0510136404    -1.9421094369     1.0452921261
Bq         1.2564445550    -1.8282881647     0.2805419333
Bq         1.0253347761    -1.9563370960     1.1408859001
Bq         1.2821234193    -1.8140605057     0.1849481592
Bq         1.1537290977    -1.8851988008     0.6629170297
Bq         1.1095949807    -1.4045129897     0.8272135016
Bq         1.1609527093    -1.3760576716     0.6360259534
Bq         1.0839161164    -1.4187406487     0.9228072757

1
2
3
4
5
6
7
8
9
10
11
12
13
14
15
16
17
18
19
20
21
22
23
24
25
26
27
28
29
30
31
32
33
34
35
36
37
38
39
40
41
42
43
44
45
46
47
48
49
50
51
52
53
54
55
56
57
58
59
60
61
62
63
64
65
66
67
68
69
70
71
72
73
74
75
76
77
78
79
80
81
82
83
84
85
86
87
88
89
90
91
92
93
94
95
96
97
98
99
100
101
102
103
104
105
106
107
108
109
110
111
112
113
114
115
116
117
118
119
120
121
122
123
124
125
126
127
128
129
130
131
132
133
134
135
136
137
138
139
140
141
142
143
144
145
146
147
148
149
150
151
152
153
154
155
156
157
158
159
160
161
162
163
164
165
166
167
168
169
170
171
172
173
174
175
176
177
178
179
180
181
182
183
184
185
186
187
188
189
190
191
192
193
194
195
196
197
198
199
200
201
202
203
204
205
206
207
208
209
210
211
212
213
214
215
216
217
218
219
220
221
222
223
224
225
226
227
228
229
230
231
232
233
234
235
236

