%nproc=8
%mem=1000MB
# rb3lyp/6-311+g** NMR geom=connectivity

Title

0 1
C    -4.0500558   -0.5771862    0.8136712
H    -5.0263804   -1.0082727    1.0024760
C    -3.9381552    0.6617804    0.2400876
H    -4.8252424    1.2338890   -0.0111295
C    -2.6768410    1.2433246    0.0057578
C    -1.4974121    0.5051527    0.2848253
C    -1.6508332   -0.7338728    0.9404026
H    -0.7713646   -1.2730967    1.2633753
C    -2.8898548   -1.2624035    1.1994307
H    -2.9683706   -2.2124563    1.7152676
C    -2.5773185    2.5963696   -0.4192930
H    -3.4870728    3.1412239   -0.6474055
C    -1.3741895    3.2147896   -0.4364030
H    -1.2997315    4.2742019   -0.6578144
C    -0.1719488    2.4994090   -0.1734588
C    -0.2043917    1.1018437    0.0192689
C     1.0513491    3.2042560   -0.0676222
H     1.0427344    4.2819499   -0.1896997
C     2.1942091    2.5487446    0.2579577
H     3.1168527    3.0912848    0.4334727
C     2.2216473    1.1336562    0.2934990
C     1.0486931    0.3945528    0.0302412
C     3.4483363    0.4614633    0.5573939
H     4.3095794    1.0606054    0.8334846
C     3.5427346   -0.8855926    0.4749463
H     4.4731467   -1.3939704    0.7038822
C     2.4490052   -1.6474447   -0.0196319
C     1.2150704   -1.0057258   -0.3013573
C     0.2531113   -1.7434440   -1.0216591
H    -0.6541356   -1.2535051   -1.3462847
C     0.4494193   -3.0628597   -1.3413779
H    -0.3083162   -3.5944309   -1.9054060
C     1.6251726   -3.7207967   -0.9552541
H     1.7670048   -4.7687404   -1.1927019
C     2.6109872   -3.0144177   -0.3183050
H     3.5525612   -3.4902813   -0.0646367
Bq         0.4450107412     4.3451184967     0.5577458550
Bq         0.3436790699     4.3795128922     1.2495181571
Bq         0.4594866943     4.3402050116     0.4589212404
Bq         0.3292031169     4.3844263773     1.3483427717
Bq         0.4739626473     4.3352915265     0.3600966259
Bq         0.4015828821     4.3598589519     0.8542196988
Bq         0.8462208513    -0.6291883319     1.2685918463
Bq         0.8751727574    -0.6390153020     1.0709426171
Bq         0.8317448983    -0.6242748468     1.3674164608
Bq         0.8896487104    -0.6439287871     0.9721180025
Bq         0.8172689452    -0.6193613617     1.4662410754
Bq         0.9041246635    -0.6488422722     0.8732933879
Bq         0.8027929922    -0.6144478766     1.5650656900
Bq         0.9186006165    -0.6537557573     0.7744687733
Bq         0.7883170391    -0.6095343915     1.6638903046
Bq         0.9330765696    -0.6586692423     0.6756441588
Bq         0.8606968043    -0.6341018169     1.1697672317
Bq         0.8497815210    -0.1297922550     1.2442838224
Bq         0.8787334271    -0.1396192251     1.0466345933
Bq         0.8353055680    -0.1248787699     1.3431084370
Bq         0.8932093801    -0.1445327102     0.9478099787
Bq         0.8208296149    -0.1199652848     1.4419330516
Bq         0.9076853332    -0.1494461953     0.8489853641
Bq         0.8063536619    -0.1150517997     1.5407576662
Bq         0.9221612862    -0.1543596804     0.7501607495
Bq         0.7918777088    -0.1101383146     1.6395822808
Bq         0.9366372393    -0.1592731655     0.6513361349
Bq         0.8642574741    -0.1347057400     1.1454592078
Bq         0.8533421907     0.3696038219     1.2199757986
Bq         0.8822940968     0.3597768518     1.0223265694
Bq         0.8388662377     0.3745173070     1.3188004132
Bq         0.8967700499     0.3548633667     0.9235019548
Bq         0.8243902846     0.3794307921     1.4176250278
Bq         0.9112460029     0.3499498816     0.8246773403
Bq         0.8099143316     0.3843442772     1.5164496423
Bq         0.9257219559     0.3450363965     0.7258527257
Bq         0.7954383785     0.3892577622     1.6152742569
Bq         0.9401979090     0.3401229114     0.6270281111
Bq         0.8678181438     0.3646903368     1.1211511840
Bq         0.8569028604     0.8689998988     1.1956677748
Bq         0.8858547665     0.8591729286     0.9980185456
Bq         0.8424269074     0.8739133839     1.2944923893
Bq         0.9003307196     0.8542594436     0.8991939310
Bq         0.8279509543     0.8788268690     1.3933170039
Bq         0.9148066726     0.8493459585     0.8003693164
Bq         0.8134750013     0.8837403541     1.4921416185
Bq         0.9292826257     0.8444324734     0.7015447018
Bq         0.7989990483     0.8886538391     1.5909662331
Bq         0.9437585787     0.8395189883     0.6027200873
Bq         0.8713788135     0.8640864137     1.0968431602
Bq         0.8604635301     1.3683959757     1.1713597509
Bq         0.8894154362     1.3585690055     0.9737105218
Bq         0.8459875771     1.3733094608     1.2701843655
Bq         0.9038913893     1.3536555204     0.8748859072
Bq         0.8315116240     1.3782229459     1.3690089801
Bq         0.9183673423     1.3487420354     0.7760612926
Bq         0.8170356710     1.3831364309     1.4678335947
Bq         0.9328432954     1.3438285503     0.6772366780
Bq         0.8025597180     1.3880499160     1.5666582093
Bq         0.9473192484     1.3389150652     0.5784120634
Bq         0.8749394832     1.3634824906     1.0725351363
Bq         0.8640241998     1.8677920526     1.1470517271
Bq         0.8929761059     1.8579650824     0.9494024979
Bq         0.8495482468     1.8727055377     1.2458763417
Bq         0.9074520590     1.8530515973     0.8505778833
Bq         0.8350722938     1.8776190227     1.3447009563
Bq         0.9219280120     1.8481381122     0.7517532688
Bq         0.8205963407     1.8825325078     1.4435255709
Bq         0.9364039651     1.8432246272     0.6529286542
Bq         0.8061203877     1.8874459929     1.5423501854
Bq         0.9508799181     1.8383111421     0.5541040396
Bq         0.8785001529     1.8628785675     1.0482271125
Bq         0.8675848696     2.3671881295     1.1227437033
Bq         0.8965367756     2.3573611593     0.9250944741
Bq         0.8531089165     2.3721016145     1.2215683179
Bq         0.9110127287     2.3524476742     0.8262698595
Bq         0.8386329635     2.3770150996     1.3203929324
Bq         0.9254886817     2.3475341891     0.7274452449
Bq         0.8241570104     2.3819285847     1.4192175470
Bq         0.9399646348     2.3426207040     0.6286206303
Bq         0.8096810574     2.3868420698     1.5180421616
Bq         0.9544405878     2.3377072190     0.5297960158
Bq         0.8820608226     2.3622746444     1.0239190887
Bq         0.8711455393     2.8665842063     1.0984356794
Bq         0.9000974454     2.8567572362     0.9007864503
Bq         0.8566695862     2.8714976914     1.1972602940
Bq         0.9145733984     2.8518437511     0.8019618357
Bq         0.8421936332     2.8764111765     1.2960849086
Bq         0.9290493514     2.8469302660     0.7031372211
Bq         0.8277176801     2.8813246616     1.3949095232
Bq         0.9435253045     2.8420167809     0.6043126065
Bq         0.8132417271     2.8862381467     1.4937341378
Bq         0.9580012575     2.8371032959     0.5054879919
Bq         0.8856214923     2.8616707213     0.9996110648
Bq         0.8747062090     3.3659802832     1.0741276556
Bq         0.9036581151     3.3561533131     0.8764784264
Bq         0.8602302559     3.3708937683     1.1729522702
Bq         0.9181340681     3.3512398280     0.7776538118
Bq         0.8457543029     3.3758072534     1.2717768848
Bq         0.9326100211     3.3463263429     0.6788291973
Bq         0.8312783498     3.3807207385     1.3706014994
Bq         0.9470859742     3.3414128578     0.5800045827
Bq         0.8168023968     3.3856342236     1.4694261139
Bq         0.9615619272     3.3364993727     0.4811799681
Bq         0.8891821620     3.3610667981     0.9753030410
Bq         0.8782668787     3.8653763601     1.0498196318
Bq         0.9072187848     3.8555493900     0.8521704026
Bq         0.8637909256     3.8702898452     1.1486442464
Bq         0.9216947378     3.8506359049     0.7533457880
Bq         0.8493149726     3.8752033303     1.2474688609
Bq         0.9361706909     3.8457224198     0.6545211734
Bq         0.8348390195     3.8801168154     1.3462934755
Bq         0.9506466439     3.8408089347     0.5556965588
Bq         0.8203630665     3.8850303004     1.4451180901
Bq         0.9651225969     3.8358954496     0.4568719443
Bq         0.8927428317     3.8604628750     0.9509950172
Bq         0.8818275484     4.3647724370     1.0255116079
Bq         0.9107794545     4.3549454668     0.8278623788
Bq         0.8673515953     4.3696859221     1.1243362225
Bq         0.9252554075     4.3500319818     0.7290377642
Bq         0.8528756423     4.3745994072     1.2231608371
Bq         0.9397313606     4.3451184967     0.6302131496
Bq         0.8383996893     4.3795128922     1.3219854517
Bq         0.9542073136     4.3402050116     0.5313885350
Bq         0.8239237362     4.3844263773     1.4208100663
Bq         0.9686832667     4.3352915265     0.4325639204
Bq         0.8963035014     4.3598589519     0.9266869934
Bq         1.3409414707    -0.6291883319     1.3410591408
Bq         1.3698933768    -0.6390153020     1.1434099117
Bq         1.3264655176    -0.6242748468     1.4398837554
Bq         1.3843693298    -0.6439287871     1.0445852971
Bq         1.3119895646    -0.6193613617     1.5387083700
Bq         1.3988452828    -0.6488422722     0.9457606825
Bq         1.2975136115    -0.6144478766     1.6375329846
Bq         1.4133212359    -0.6537557573     0.8469360679
Bq         1.2830376585    -0.6095343915     1.7363575992
Bq         1.4277971889    -0.6586692423     0.7481114533
Bq         1.3554174237    -0.6341018169     1.2422345262
Bq         1.3445021404    -0.1297922550     1.3167511170
Bq         1.3734540465    -0.1396192251     1.1191018878
Bq         1.3300261873    -0.1248787699     1.4155757316
Bq         1.3879299995    -0.1445327102     1.0202772732
Bq         1.3155502343    -0.1199652848     1.5144003462
Bq         1.4024059525    -0.1494461953     0.9214526587
Bq         1.3010742812    -0.1150517997     1.6132249608
Bq         1.4168819056    -0.1543596804     0.8226280441
Bq         1.2865983282    -0.1101383146     1.7120495753
Bq         1.4313578586    -0.1592731655     0.7238034295
Bq         1.3589780934    -0.1347057400     1.2179265024
Bq         1.3480628101     0.3696038219     1.2924430932
Bq         1.3770147162     0.3597768518     1.0947938640
Bq         1.3335868570     0.3745173070     1.3912677077
Bq         1.3914906692     0.3548633667     0.9959692494
Bq         1.3191109040     0.3794307921     1.4900923223
Bq         1.4059666223     0.3499498816     0.8971446348
Bq         1.3046349509     0.3843442772     1.5889169369
Bq         1.4204425753     0.3450363965     0.7983200202
Bq         1.2901589979     0.3892577622     1.6877415515
Bq         1.4349185283     0.3401229114     0.6994954057
Bq         1.3625387631     0.3646903368     1.1936184786
Bq         1.3516234798     0.8689998988     1.2681350693
Bq         1.3805753859     0.8591729286     1.0704858402
Bq         1.3371475267     0.8739133839     1.3669596839
Bq         1.3950513389     0.8542594436     0.9716612256
Bq         1.3226715737     0.8788268690     1.4657842985
Bq         1.4095272920     0.8493459585     0.8728366110
Bq         1.3081956207     0.8837403541     1.5646089131
Bq         1.4240032450     0.8444324734     0.7740119964
Bq         1.2937196676     0.8886538391     1.6634335277
Bq         1.4384791981     0.8395189883     0.6751873818
Bq         1.3660994328     0.8640864137     1.1693104547
Bq         1.3551841495     1.3683959757     1.2438270455
Bq         1.3841360556     1.3585690055     1.0461778163
Bq         1.3407081965     1.3733094608     1.3426516601
Bq         1.3986120086     1.3536555204     0.9473532017
Bq         1.3262322434     1.3782229459     1.4414762747
Bq         1.4130879617     1.3487420354     0.8485285872
Bq         1.3117562904     1.3831364309     1.5403008893
Bq         1.4275639147     1.3438285503     0.7497039726
Bq         1.2972803373     1.3880499160     1.6391255038
Bq         1.4420398678     1.3389150652     0.6508793580
Bq         1.3696601025     1.3634824906     1.1450024309
Bq         1.3587448192     1.8677920526     1.2195190217
Bq         1.3876967253     1.8579650824     1.0218697925
Bq         1.3442688662     1.8727055377     1.3183436363
Bq         1.4021726783     1.8530515973     0.9230451779
Bq         1.3297929131     1.8776190227     1.4171682508
Bq         1.4166486314     1.8481381122     0.8242205633
Bq         1.3153169601     1.8825325078     1.5159928654
Bq         1.4311245844     1.8432246272     0.7253959487
Bq         1.3008410070     1.8874459929     1.6148174800
Bq         1.4456005375     1.8383111421     0.6265713342
Bq         1.3732207722     1.8628785675     1.1206944071
Bq         1.3623054889     2.3671881295     1.1952109978
Bq         1.3912573950     2.3573611593     0.9975617687
Bq         1.3478295359     2.3721016145     1.2940356124
Bq         1.4057333480     2.3524476742     0.8987371541
Bq         1.3333535828     2.3770150996     1.3928602270
Bq         1.4202093011     2.3475341891     0.7999125395
Bq         1.3188776298     2.3819285847     1.4916848416

1
2
3
4
5
6
7
8
9
10
11
12
13
14
15
16
17
18
19
20
21
22
23
24
25
26
27
28
29
30
31
32
33
34
35
36
37
38
39
40
41
42
43
44
45
46
47
48
49
50
51
52
53
54
55
56
57
58
59
60
61
62
63
64
65
66
67
68
69
70
71
72
73
74
75
76
77
78
79
80
81
82
83
84
85
86
87
88
89
90
91
92
93
94
95
96
97
98
99
100
101
102
103
104
105
106
107
108
109
110
111
112
113
114
115
116
117
118
119
120
121
122
123
124
125
126
127
128
129
130
131
132
133
134
135
136
137
138
139
140
141
142
143
144
145
146
147
148
149
150
151
152
153
154
155
156
157
158
159
160
161
162
163
164
165
166
167
168
169
170
171
172
173
174
175
176
177
178
179
180
181
182
183
184
185
186
187
188
189
190
191
192
193
194
195
196
197
198
199
200
201
202
203
204
205
206
207
208
209
210
211
212
213
214
215
216
217
218
219
220
221
222
223
224
225
226
227
228
229
230
231
232
233
234
235
236

