%nproc=8
%mem=1000MB
# rb3lyp/6-311+g** NMR geom=connectivity

Title

0 1
C    -4.0500558   -0.5771862    0.8136712
H    -5.0263804   -1.0082727    1.0024760
C    -3.9381552    0.6617804    0.2400876
H    -4.8252424    1.2338890   -0.0111295
C    -2.6768410    1.2433246    0.0057578
C    -1.4974121    0.5051527    0.2848253
C    -1.6508332   -0.7338728    0.9404026
H    -0.7713646   -1.2730967    1.2633753
C    -2.8898548   -1.2624035    1.1994307
H    -2.9683706   -2.2124563    1.7152676
C    -2.5773185    2.5963696   -0.4192930
H    -3.4870728    3.1412239   -0.6474055
C    -1.3741895    3.2147896   -0.4364030
H    -1.2997315    4.2742019   -0.6578144
C    -0.1719488    2.4994090   -0.1734588
C    -0.2043917    1.1018437    0.0192689
C     1.0513491    3.2042560   -0.0676222
H     1.0427344    4.2819499   -0.1896997
C     2.1942091    2.5487446    0.2579577
H     3.1168527    3.0912848    0.4334727
C     2.2216473    1.1336562    0.2934990
C     1.0486931    0.3945528    0.0302412
C     3.4483363    0.4614633    0.5573939
H     4.3095794    1.0606054    0.8334846
C     3.5427346   -0.8855926    0.4749463
H     4.4731467   -1.3939704    0.7038822
C     2.4490052   -1.6474447   -0.0196319
C     1.2150704   -1.0057258   -0.3013573
C     0.2531113   -1.7434440   -1.0216591
H    -0.6541356   -1.2535051   -1.3462847
C     0.4494193   -3.0628597   -1.3413779
H    -0.3083162   -3.5944309   -1.9054060
C     1.6251726   -3.7207967   -0.9552541
H     1.7670048   -4.7687404   -1.1927019
C     2.6109872   -3.0144177   -0.3183050
H     3.5525612   -3.4902813   -0.0646367
Bq        -1.2882042352    -1.1605581050     1.6890816257
Bq        -1.2899742130    -0.9431445200     2.1393351101
Bq        -1.2894735472    -0.4494048397     2.0119739018
Bq        -1.2887655561    -0.5363702737     1.8318725081
Bq        -1.2898275428    -0.4059221227     2.1020245987
Bq        -1.2884115605    -0.5798529907     1.7418218112
Bq        -1.2901815384    -0.3624394056     2.1920752956
Bq        -1.2880575650    -0.6233357077     1.6517711143
Bq        -1.2905355340    -0.3189566886     2.2821259925
Bq        -1.2877035694    -0.6668184247     1.5617204174
Bq        -1.2908895295    -0.2754739716     2.3721766894
Bq        -1.2873495738    -0.7103011417     1.4716697205
Bq        -1.2891195517    -0.4928875567     1.9219232050
Bq        -1.2886188859     0.0008521237     1.7945619967
Bq        -1.2879108947    -0.0861133103     1.6144606029
Bq        -1.2889728815     0.0443348407     1.8846126936
Bq        -1.2875568992    -0.1295960273     1.5244099060
Bq        -1.2893268770     0.0878175577     1.9746633904
Bq        -1.2872029036    -0.1730787443     1.4343592091
Bq        -1.2896808726     0.1313002747     2.0647140873
Bq        -1.2868489080    -0.2165614613     1.3443085123
Bq        -1.2900348682     0.1747829917     2.1547647842
Bq        -1.2864949124    -0.2600441783     1.2542578154
Bq        -1.2882648903    -0.0426305933     1.7045112998
Bq        -1.2877642245     0.4511090870     1.5771500915
Bq        -1.2870562334     0.3641436530     1.3970486977
Bq        -1.2881182201     0.4945918041     1.6672007884
Bq        -1.2867022378     0.3206609360     1.3069980009
Bq        -1.2884722157     0.5380745211     1.7572514853
Bq        -1.2863482422     0.2771782190     1.2169473040
Bq        -1.2888262112     0.5815572381     1.8473021822
Bq        -1.2859942466     0.2336955020     1.1268966071
Bq        -1.2891802068     0.6250399551     1.9373528790
Bq        -1.2856402511     0.1902127850     1.0368459102
Bq        -1.2874102289     0.4076263700     1.4870993946
Bq        -1.2869095631     0.9013660504     1.3597381863
Bq        -1.2862015720     0.8144006164     1.1796367926
Bq        -1.2872635587     0.9448487674     1.4497888832
Bq        -1.2858475764     0.7709178994     1.0895860957
Bq        -1.2876175543     0.9883314844     1.5398395801
Bq        -1.2854935808     0.7274351824     0.9995353988
Bq        -1.2879715499     1.0318142014     1.6298902770
Bq        -1.2851395853     0.6839524654     0.9094847019
Bq        -1.2883255454     1.0752969184     1.7199409739
Bq        -1.2847855897     0.6404697484     0.8194340051
Bq        -1.2865555676     0.8578833334     1.2696874895
Bq        -1.2860549018     1.3516230138     1.1423262812
Bq        -1.2853469106     1.2646575797     0.9622248874
Bq        -1.2864088973     1.3951057308     1.2323769781
Bq        -1.2849929150     1.2211748627     0.8721741905
Bq        -1.2867628929     1.4385884478     1.3224276749
Bq        -1.2846389195     1.1776921457     0.7821234937
Bq        -1.2871168885     1.4820711648     1.4124783718
Bq        -1.2842849239     1.1342094287     0.6920727968
Bq        -1.2874708841     1.5255538818     1.5025290687
Bq        -1.2839309283     1.0907267117     0.6020220999
Bq        -1.2857009062     1.3081402968     1.0522755843
Bq        -1.2852002404     1.8018799771     0.9249143760
Bq        -1.2844922492     1.7149145431     0.7448129823
Bq        -1.2855542360     1.8453626941     1.0149650729
Bq        -1.2841382537     1.6714318261     0.6547622854
Bq        -1.2859082315     1.8888454111     1.1050157698
Bq        -1.2837842581     1.6279491091     0.5647115885
Bq        -1.2862622271     1.9323281281     1.1950664667
Bq        -1.2834302625     1.5844663921     0.4746608916
Bq        -1.2866162227     1.9758108451     1.2851171636
Bq        -1.2830762669     1.5409836751     0.3846101947
Bq        -1.2848462448     1.7583972601     0.8348636791
Bq        -1.2843455790     2.2521369405     0.7075024709
Bq        -1.2836375879     2.1651715065     0.5274010771
Bq        -1.2846995746     2.2956196575     0.7975531677
Bq        -1.2832835923     2.1216887894     0.4373503802
Bq        -1.2850535702     2.3391023745     0.8876038646
Bq        -1.2829295967     2.0782060724     0.3472996833
Bq        -1.2854075657     2.3825850915     0.9776545615
Bq        -1.2825756011     2.0347233554     0.2572489864
Bq        -1.2857615613     2.4260678085     1.0677052584
Bq        -1.2822216056     1.9912406384     0.1671982896
Bq        -1.2839915834     2.2086542235     0.6174517740
Bq        -1.2834909176     2.7023939038     0.4900905657
Bq        -1.2827829265     2.6154284698     0.3099891719
Bq        -1.2838449132     2.7458766208     0.5801412626
Bq        -1.2824289309     2.5719457528     0.2199384750
Bq        -1.2841989088     2.7893593378     0.6701919595
Bq        -1.2820749353     2.5284630358     0.1298877782
Bq        -1.2845529044     2.8328420548     0.7602426563
Bq        -1.2817209398     2.4849803188     0.0398370813
Bq        -1.2849068999     2.8763247718     0.8502933532
Bq        -1.2813669442     2.4414976018    -0.0502136156
Bq        -1.2831369221     2.6589111868     0.4000398688
Bq        -0.7920413947    -1.8001757297     2.6661751370
Bq        -0.7913334035    -1.8871411637     2.4860737433
Bq        -0.7923953902    -1.7566930127     2.7562258339
Bq        -0.7909794079    -1.9306238807     2.3960230464
Bq        -0.7927493858    -1.7132102957     2.8462765308
Bq        -0.7906254124    -1.9741065977     2.3059723495
Bq        -0.7931033814    -1.6697275787     2.9363272277
Bq        -0.7902714168    -2.0175893147     2.2159216526
Bq        -0.7934573770    -1.6262448617     3.0263779246
Bq        -0.7899174212    -2.0610720317     2.1258709557
Bq        -0.7916873991    -1.8436584467     2.5761244401
Bq        -0.7911867333    -1.3499187664     2.4487632319
Bq        -0.7904787421    -1.4368842004     2.2686618381
Bq        -0.7915407289    -1.3064360494     2.5388139288
Bq        -0.7901247466    -1.4803669174     2.1786111412
Bq        -0.7918947244    -1.2629533324     2.6288646256
Bq        -0.7897707510    -1.5238496344     2.0885604443
Bq        -0.7922487200    -1.2194706153     2.7189153225
Bq        -0.7894167554    -1.5673323514     1.9985097475
Bq        -0.7926027156    -1.1759878983     2.8089660194
Bq        -0.7890627598    -1.6108150684     1.9084590506
Bq        -0.7908327377    -1.3934014834     2.3587125350
Bq        -0.7903320719    -0.8996618030     2.2313513267
Bq        -0.7896240808    -0.9866272370     2.0512499329
Bq        -0.7906860675    -0.8561790860     2.3214020236
Bq        -0.7892700852    -1.0301099540     1.9611992361
Bq        -0.7910400631    -0.8126963690     2.4114527205
Bq        -0.7889160896    -1.0735926710     1.8711485392
Bq        -0.7913940586    -0.7692136520     2.5015034174
Bq        -0.7885620940    -1.1170753880     1.7810978423
Bq        -0.7917480542    -0.7257309350     2.5915541142
Bq        -0.7882080985    -1.1605581050     1.6910471454
Bq        -0.7899780763    -0.9431445200     2.1413006298
Bq        -0.7894774105    -0.4494048397     2.0139394215
Bq        -0.7887694194    -0.5363702737     1.8338380278
Bq        -0.7898314061    -0.4059221227     2.1039901184
Bq        -0.7884154238    -0.5798529907     1.7437873309
Bq        -0.7901854017    -0.3624394056     2.1940408153
Bq        -0.7880614282    -0.6233357077     1.6537366340
Bq        -0.7905393973    -0.3189566886     2.2840915122
Bq        -0.7877074327    -0.6668184247     1.5636859371
Bq        -0.7908933928    -0.2754739716     2.3741422091
Bq        -0.7873534371    -0.7103011417     1.4736352402
Bq        -0.7891234150    -0.4928875567     1.9238887247
Bq        -0.7886227492     0.0008521237     1.7965275164
Bq        -0.7879147580    -0.0861133103     1.6164261226
Bq        -0.7889767447     0.0443348407     1.8865782133
Bq        -0.7875607624    -0.1295960273     1.5263754257
Bq        -0.7893307403     0.0878175577     1.9766289101
Bq        -0.7872067669    -0.1730787443     1.4363247289
Bq        -0.7896847359     0.1313002747     2.0666796070
Bq        -0.7868527713    -0.2165614613     1.3462740320
Bq        -0.7900387315     0.1747829917     2.1567303039
Bq        -0.7864987757    -0.2600441783     1.2562233351
Bq        -0.7882687536    -0.0426305933     1.7064768195
Bq        -0.7877680878     0.4511090870     1.5791156112
Bq        -0.7870600966     0.3641436530     1.3990142175
Bq        -0.7881220834     0.4945918041     1.6691663081
Bq        -0.7867061011     0.3206609360     1.3089635206
Bq        -0.7884760789     0.5380745211     1.7592170050
Bq        -0.7863521055     0.2771782190     1.2189128237
Bq        -0.7888300745     0.5815572381     1.8492677019
Bq        -0.7859981099     0.2336955020     1.1288621268
Bq        -0.7891840701     0.6250399551     1.9393183987
Bq        -0.7856441143     0.1902127850     1.0388114299
Bq        -0.7874140922     0.4076263700     1.4890649143
Bq        -0.7869134264     0.9013660504     1.3617037061
Bq        -0.7862054353     0.8144006164     1.1816023123
Bq        -0.7872674220     0.9448487674     1.4517544029
Bq        -0.7858514397     0.7709178994     1.0915516154
Bq        -0.7876214176     0.9883314844     1.5418050998
Bq        -0.7854974441     0.7274351824     1.0015009185
Bq        -0.7879754131     1.0318142014     1.6318557967
Bq        -0.7851434485     0.6839524654     0.9114502216
Bq        -0.7883294087     1.0752969184     1.7219064936
Bq        -0.7847894530     0.6404697484     0.8213995248
Bq        -0.7865594308     0.8578833334     1.2716530092
Bq        -0.7860587650     1.3516230138     1.1442918009
Bq        -0.7853507739     1.2646575797     0.9641904071
Bq        -0.7864127606     1.3951057308     1.2343424978
Bq        -0.7849967783     1.2211748627     0.8741397102
Bq        -0.7867667562     1.4385884478     1.3243931947
Bq        -0.7846427827     1.1776921457     0.7840890134
Bq        -0.7871207518     1.4820711648     1.4144438915
Bq        -0.7842887872     1.1342094287     0.6940383165
Bq        -0.7874747473     1.5255538818     1.5044945884
Bq        -0.7839347916     1.0907267117     0.6039876196
Bq        -0.7857047695     1.3081402968     1.0542411040
Bq        -0.7852041037     1.8018799771     0.9268798957
Bq        -0.7844961125     1.7149145431     0.7467785020
Bq        -0.7855580992     1.8453626941     1.0169305926
Bq        -0.7841421169     1.6714318261     0.6567278051
Bq        -0.7859120948     1.8888454111     1.1069812895
Bq        -0.7837881214     1.6279491091     0.5666771082
Bq        -0.7862660904     1.9323281281     1.1970319864
Bq        -0.7834341258     1.5844663921     0.4766264113
Bq        -0.7866200860     1.9758108451     1.2870826833
Bq        -0.7830801302     1.5409836751     0.3865757144
Bq        -0.7848501081     1.7583972601     0.8368291988
Bq        -0.7843494423     2.2521369405     0.7094679906
Bq        -0.7836414511     2.1651715065     0.5293665968
Bq        -0.7847034379     2.2956196575     0.7995186875
Bq        -0.7832874556     2.1216887894     0.4393158999
Bq        -0.7850574334     2.3391023745     0.8895693843
Bq        -0.7829334600     2.0782060724     0.3492652030
Bq        -0.7854114290     2.3825850915     0.9796200812
Bq        -0.7825794644     2.0347233554     0.2592145062
Bq        -0.7857654246     2.4260678085     1.0696707781
Bq        -0.7822254688     1.9912406384     0.1691638093
Bq        -0.7839954467     2.2086542235     0.6194172937

1
2
3
4
5
6
7
8
9
10
11
12
13
14
15
16
17
18
19
20
21
22
23
24
25
26
27
28
29
30
31
32
33
34
35
36
37
38
39
40
41
42
43
44
45
46
47
48
49
50
51
52
53
54
55
56
57
58
59
60
61
62
63
64
65
66
67
68
69
70
71
72
73
74
75
76
77
78
79
80
81
82
83
84
85
86
87
88
89
90
91
92
93
94
95
96
97
98
99
100
101
102
103
104
105
106
107
108
109
110
111
112
113
114
115
116
117
118
119
120
121
122
123
124
125
126
127
128
129
130
131
132
133
134
135
136
137
138
139
140
141
142
143
144
145
146
147
148
149
150
151
152
153
154
155
156
157
158
159
160
161
162
163
164
165
166
167
168
169
170
171
172
173
174
175
176
177
178
179
180
181
182
183
184
185
186
187
188
189
190
191
192
193
194
195
196
197
198
199
200
201
202
203
204
205
206
207
208
209
210
211
212
213
214
215
216
217
218
219
220
221
222
223
224
225
226
227
228
229
230
231
232
233
234
235
236

