%nproc=8
%mem=1000MB
# rb3lyp/6-311+g** NMR geom=connectivity

Title

0 1
C    -4.0500558   -0.5771862    0.8136712
H    -5.0263804   -1.0082727    1.0024760
C    -3.9381552    0.6617804    0.2400876
H    -4.8252424    1.2338890   -0.0111295
C    -2.6768410    1.2433246    0.0057578
C    -1.4974121    0.5051527    0.2848253
C    -1.6508332   -0.7338728    0.9404026
H    -0.7713646   -1.2730967    1.2633753
C    -2.8898548   -1.2624035    1.1994307
H    -2.9683706   -2.2124563    1.7152676
C    -2.5773185    2.5963696   -0.4192930
H    -3.4870728    3.1412239   -0.6474055
C    -1.3741895    3.2147896   -0.4364030
H    -1.2997315    4.2742019   -0.6578144
C    -0.1719488    2.4994090   -0.1734588
C    -0.2043917    1.1018437    0.0192689
C     1.0513491    3.2042560   -0.0676222
H     1.0427344    4.2819499   -0.1896997
C     2.1942091    2.5487446    0.2579577
H     3.1168527    3.0912848    0.4334727
C     2.2216473    1.1336562    0.2934990
C     1.0486931    0.3945528    0.0302412
C     3.4483363    0.4614633    0.5573939
H     4.3095794    1.0606054    0.8334846
C     3.5427346   -0.8855926    0.4749463
H     4.4731467   -1.3939704    0.7038822
C     2.4490052   -1.6474447   -0.0196319
C     1.2150704   -1.0057258   -0.3013573
C     0.2531113   -1.7434440   -1.0216591
H    -0.6541356   -1.2535051   -1.3462847
C     0.4494193   -3.0628597   -1.3413779
H    -0.3083162   -3.5944309   -1.9054060
C     1.6251726   -3.7207967   -0.9552541
H     1.7670048   -4.7687404   -1.1927019
C     2.6109872   -3.0144177   -0.3183050
H     3.5525612   -3.4902813   -0.0646367
Bq        -0.7834947809     2.7023939038     0.4920560854
Bq        -0.7827867898     2.6154284698     0.3119546916
Bq        -0.7838487765     2.7458766208     0.5821067823
Bq        -0.7824327942     2.5719457528     0.2219039948
Bq        -0.7842027721     2.7893593378     0.6721574792
Bq        -0.7820787986     2.5284630358     0.1318532979
Bq        -0.7845567676     2.8328420548     0.7622081761
Bq        -0.7817248030     2.4849803188     0.0418026010
Bq        -0.7849107632     2.8763247718     0.8522588729
Bq        -0.7813708075     2.4414976018    -0.0482480959
Bq        -0.7831407853     2.6589111868     0.4020053885
Bq        -0.2920452579    -1.8001757297     2.6681406567
Bq        -0.2913372668    -1.8871411637     2.4880392630
Bq        -0.2923992535    -1.7566930127     2.7581913536
Bq        -0.2909832712    -1.9306238807     2.3979885661
Bq        -0.2927532491    -1.7132102957     2.8482420505
Bq        -0.2906292756    -1.9741065977     2.3079378692
Bq        -0.2931072447    -1.6697275787     2.9382927474
Bq        -0.2902752801    -2.0175893147     2.2178871723
Bq        -0.2934612402    -1.6262448617     3.0283434443
Bq        -0.2899212845    -2.0610720317     2.1278364754
Bq        -0.2916912624    -1.8436584467     2.5780899599
Bq        -0.2911905966    -1.3499187664     2.4507287516
Bq        -0.2904826054    -1.4368842004     2.2706273578
Bq        -0.2915445921    -1.3064360494     2.5407794485
Bq        -0.2901286098    -1.4803669174     2.1805766609
Bq        -0.2918985877    -1.2629533324     2.6308301453
Bq        -0.2897746143    -1.5238496344     2.0905259640
Bq        -0.2922525833    -1.2194706153     2.7208808422
Bq        -0.2894206187    -1.5673323514     2.0004752672
Bq        -0.2926065789    -1.1759878983     2.8109315391
Bq        -0.2890666231    -1.6108150684     1.9104245703
Bq        -0.2908366010    -1.3934014834     2.3606780547
Bq        -0.2903359352    -0.8996618030     2.2333168464
Bq        -0.2896279440    -0.9866272370     2.0532154527
Bq        -0.2906899308    -0.8561790860     2.3233675433
Bq        -0.2892739485    -1.0301099540     1.9631647558
Bq        -0.2910439263    -0.8126963690     2.4134182402
Bq        -0.2889199529    -1.0735926710     1.8731140589
Bq        -0.2913979219    -0.7692136520     2.5034689371
Bq        -0.2885659573    -1.1170753880     1.7830633620
Bq        -0.2917519175    -0.7257309350     2.5935196339
Bq        -0.2882119617    -1.1605581050     1.6930126651
Bq        -0.2899819396    -0.9431445200     2.1432661495
Bq        -0.2894812738    -0.4494048397     2.0159049413
Bq        -0.2887732827    -0.5363702737     1.8358035475
Bq        -0.2898352694    -0.4059221227     2.1059556381
Bq        -0.2884192871    -0.5798529907     1.7457528506
Bq        -0.2901892650    -0.3624394056     2.1960063350
Bq        -0.2880652915    -0.6233357077     1.6557021537
Bq        -0.2905432605    -0.3189566886     2.2860570319
Bq        -0.2877112959    -0.6668184247     1.5656514568
Bq        -0.2908972561    -0.2754739716     2.3761077288
Bq        -0.2873573004    -0.7103011417     1.4756007600
Bq        -0.2891272782    -0.4928875567     1.9258542444
Bq        -0.2886266124     0.0008521237     1.7984930361
Bq        -0.2879186213    -0.0861133103     1.6183916423
Bq        -0.2889806080     0.0443348407     1.8885437330
Bq        -0.2875646257    -0.1295960273     1.5283409454
Bq        -0.2893346036     0.0878175577     1.9785944299
Bq        -0.2872106301    -0.1730787443     1.4382902486
Bq        -0.2896885992     0.1313002747     2.0686451267
Bq        -0.2868566346    -0.2165614613     1.3482395517
Bq        -0.2900425947     0.1747829917     2.1586958236
Bq        -0.2865026390    -0.2600441783     1.2581888548
Bq        -0.2882726169    -0.0426305933     1.7084423392
Bq        -0.2877719511     0.4511090870     1.5810811309
Bq        -0.2870639599     0.3641436530     1.4009797372
Bq        -0.2881259466     0.4945918041     1.6711318278
Bq        -0.2867099643     0.3206609360     1.3109290403
Bq        -0.2884799422     0.5380745211     1.7611825247
Bq        -0.2863559688     0.2771782190     1.2208783434
Bq        -0.2888339378     0.5815572381     1.8512332216
Bq        -0.2860019732     0.2336955020     1.1308276465
Bq        -0.2891879334     0.6250399551     1.9412839185
Bq        -0.2856479776     0.1902127850     1.0407769496
Bq        -0.2874179555     0.4076263700     1.4910304340
Bq        -0.2869172897     0.9013660504     1.3636692258
Bq        -0.2862092985     0.8144006164     1.1835678320
Bq        -0.2872712853     0.9448487674     1.4537199227
Bq        -0.2858553030     0.7709178994     1.0935171351
Bq        -0.2876252808     0.9883314844     1.5437706195
Bq        -0.2855013074     0.7274351824     1.0034664382
Bq        -0.2879792764     1.0318142014     1.6338213164
Bq        -0.2851473118     0.6839524654     0.9134157414
Bq        -0.2883332720     1.0752969184     1.7238720133
Bq        -0.2847933162     0.6404697484     0.8233650445
Bq        -0.2865632941     0.8578833334     1.2736185289
Bq        -0.2860626283     1.3516230138     1.1462573206
Bq        -0.2853546372     1.2646575797     0.9661559268
Bq        -0.2864166239     1.3951057308     1.2363080175
Bq        -0.2850006416     1.2211748627     0.8761052300
Bq        -0.2867706195     1.4385884478     1.3263587144
Bq        -0.2846466460     1.1776921457     0.7860545331
Bq        -0.2871246150     1.4820711648     1.4164094113
Bq        -0.2842926504     1.1342094287     0.6960038362
Bq        -0.2874786106     1.5255538818     1.5064601081
Bq        -0.2839386549     1.0907267117     0.6059531393
Bq        -0.2857086327     1.3081402968     1.0562066237
Bq        -0.2852079669     1.8018799771     0.9288454154
Bq        -0.2844999758     1.7149145431     0.7487440217
Bq        -0.2855619625     1.8453626941     1.0188961123
Bq        -0.2841459802     1.6714318261     0.6586933248
Bq        -0.2859159581     1.8888454111     1.1089468092
Bq        -0.2837919846     1.6279491091     0.5686426279
Bq        -0.2862699537     1.9323281281     1.1989975061
Bq        -0.2834379891     1.5844663921     0.4785919310
Bq        -0.2866239492     1.9758108451     1.2890482030
Bq        -0.2830839935     1.5409836751     0.3885412341
Bq        -0.2848539714     1.7583972601     0.8387947186
Bq        -0.2843533056     2.2521369405     0.7114335103
Bq        -0.2836453144     2.1651715065     0.5313321165
Bq        -0.2847073011     2.2956196575     0.8014842072
Bq        -0.2832913188     2.1216887894     0.4412814196
Bq        -0.2850612967     2.3391023745     0.8915349040
Bq        -0.2829373233     2.0782060724     0.3512307228
Bq        -0.2854152923     2.3825850915     0.9815856009
Bq        -0.2825833277     2.0347233554     0.2611800259
Bq        -0.2857692879     2.4260678085     1.0716362978
Bq        -0.2822293321     1.9912406384     0.1711293290
Bq        -0.2839993100     2.2086542235     0.6213828134
Bq        -0.2834986442     2.7023939038     0.4940216051
Bq        -0.2827906530     2.6154284698     0.3139202114
Bq        -0.2838526398     2.7458766208     0.5840723020
Bq        -0.2824366575     2.5719457528     0.2238695145
Bq        -0.2842066353     2.7893593378     0.6741229989
Bq        -0.2820826619     2.5284630358     0.1338188176
Bq        -0.2845606309     2.8328420548     0.7641736958
Bq        -0.2817286663     2.4849803188     0.0437681207
Bq        -0.2849146265     2.8763247718     0.8542243926
Bq        -0.2813746708     2.4414976018    -0.0462825762
Bq        -0.2831446486     2.6589111868     0.4039709082

1
2
3
4
5
6
7
8
9
10
11
12
13
14
15
16
17
18
19
20
21
22
23
24
25
26
27
28
29
30
31
32
33
34
35
36
37
38
39
40
41
42
43
44
45
46
47
48
49
50
51
52
53
54
55
56
57
58
59
60
61
62
63
64
65
66
67
68
69
70
71
72
73
74
75
76
77
78
79
80
81
82
83
84
85
86
87
88
89
90
91
92
93
94
95
96
97
98
99
100
101
102
103
104
105
106
107
108
109
110
111
112
113
114
115
116
117
118
119
120
121
122
123
124
125
126
127
128
129
130
131
132
133
134
135
136
137
138
139
140
141
142
143
144
145
146
147
148
149
150
151
152
153
154
155
156
157
158
159
160
161
162
163
164
165
166
167
168

