%nproc=8
%mem=1000MB
# rb3lyp/6-311+g** NMR geom=connectivity

Title

0 1
C    -4.0500558   -0.5771862    0.8136712
H    -5.0263804   -1.0082727    1.0024760
C    -3.9381552    0.6617804    0.2400876
H    -4.8252424    1.2338890   -0.0111295
C    -2.6768410    1.2433246    0.0057578
C    -1.4974121    0.5051527    0.2848253
C    -1.6508332   -0.7338728    0.9404026
H    -0.7713646   -1.2730967    1.2633753
C    -2.8898548   -1.2624035    1.1994307
H    -2.9683706   -2.2124563    1.7152676
C    -2.5773185    2.5963696   -0.4192930
H    -3.4870728    3.1412239   -0.6474055
C    -1.3741895    3.2147896   -0.4364030
H    -1.2997315    4.2742019   -0.6578144
C    -0.1719488    2.4994090   -0.1734588
C    -0.2043917    1.1018437    0.0192689
C     1.0513491    3.2042560   -0.0676222
H     1.0427344    4.2819499   -0.1896997
C     2.1942091    2.5487446    0.2579577
H     3.1168527    3.0912848    0.4334727
C     2.2216473    1.1336562    0.2934990
C     1.0486931    0.3945528    0.0302412
C     3.4483363    0.4614633    0.5573939
H     4.3095794    1.0606054    0.8334846
C     3.5427346   -0.8855926    0.4749463
H     4.4731467   -1.3939704    0.7038822
C     2.4490052   -1.6474447   -0.0196319
C     1.2150704   -1.0057258   -0.3013573
C     0.2531113   -1.7434440   -1.0216591
H    -0.6541356   -1.2535051   -1.3462847
C     0.4494193   -3.0628597   -1.3413779
H    -0.3083162   -3.5944309   -1.9054060
C     1.6251726   -3.7207967   -0.9552541
H     1.7670048   -4.7687404   -1.1927019
C     2.6109872   -3.0144177   -0.3183050
H     3.5525612   -3.4902813   -0.0646367
Bq        -3.4402938597     3.0504903758     0.4273236413
Bq        -3.4518198037     3.1241383279     0.7179146455
Bq        -3.4364518784     3.0259410584     0.3304599732
Bq        -3.4556617850     3.1486876453     0.8147783136
Bq        -3.4326098971     3.0013917410     0.2335963051
Bq        -3.4595037664     3.1732369627     0.9116419817
Bq        -3.4287679157     2.9768424236     0.1367326370
Bq        -3.4633457477     3.1977862800     1.0085056498
Bq        -3.4249259344     2.9522931063     0.0398689689
Bq        -3.4441358410     3.0750396931     0.5241873093
Bq        -3.4431130512     3.5842881702     0.4984008303
Bq        -3.4354290886     3.5351895355     0.3046734941
Bq        -3.4469550326     3.6088374876     0.5952644984
Bq        -3.4315871073     3.5106402181     0.2078098260
Bq        -3.4507970139     3.6333868050     0.6921281665
Bq        -3.4277451259     3.4860909007     0.1109461579
Bq        -3.4546389952     3.6579361223     0.7889918346
Bq        -3.4239031446     3.4615415833     0.0140824899
Bq        -3.4584809766     3.6824854397     0.8858555027
Bq        -3.4200611633     3.4369922660    -0.0827811782
Bq        -3.4392710699     3.5597388528     0.4015371622
Bq        -3.4382482801     4.0689873299     0.3757506832
Bq        -3.4305643175     4.0198886952     0.1820233470
Bq        -3.4420902615     4.0935366473     0.4726143513
Bq        -3.4267223361     3.9953393778     0.0851596789
Bq        -3.4459322428     4.1180859647     0.5694780193
Bq        -3.4228803548     3.9707900604    -0.0117039892
Bq        -3.4497742241     4.1426352820     0.6663416874
Bq        -3.4190383735     3.9462407430    -0.1085676573
Bq        -3.4536162054     4.1671845994     0.7632053555
Bq        -3.4151963921     3.9216914257    -0.2054313254
Bq        -3.4344062988     4.0444380125     0.2788870151
Bq        -3.4333835090     4.5536864896     0.2531005360
Bq        -3.4256995463     4.5045878549     0.0593731999
Bq        -3.4372254903     4.5782358070     0.3499642041
Bq        -3.4218575650     4.4800385375    -0.0374904682
Bq        -3.4410674717     4.6027851244     0.4468278722
Bq        -3.4180155837     4.4554892201    -0.1343541363
Bq        -3.4449094530     4.6273344417     0.5436915403
Bq        -3.4141736024     4.4309399027    -0.2312178044
Bq        -3.4487514343     4.6518837591     0.6405552084
Bq        -3.4103316210     4.4063905854    -0.3280814725
Bq        -3.4295415277     4.5291371722     0.1562368679
Bq        -2.9824240611    -0.2933051073     1.4994183267
Bq        -2.9747400984    -0.3424037421     1.3056909905
Bq        -2.9862660424    -0.2687557900     1.5962819948
Bq        -2.9708981171    -0.3669530595     1.2088273224
Bq        -2.9901080237    -0.2442064726     1.6931456629
Bq        -2.9670561357    -0.3915023768     1.1119636543
Bq        -2.9939500050    -0.2196571552     1.7900093310
Bq        -2.9632141544    -0.4160516942     1.0150999863
Bq        -2.9977919864    -0.1951078378     1.8868729991
Bq        -2.9593721731    -0.4406010116     0.9182363182
Bq        -2.9785820797    -0.3178544247     1.4025546586
Bq        -2.9775592899     0.1913940524     1.3767681796
Bq        -2.9698753273     0.1422954176     1.1830408434
Bq        -2.9814012713     0.2159433697     1.4736318477
Bq        -2.9660333459     0.1177461002     1.0861771753
Bq        -2.9852432526     0.2404926871     1.5704955158
Bq        -2.9621913646     0.0931967828     0.9893135072
Bq        -2.9890852339     0.2650420045     1.6673591838
Bq        -2.9583493833     0.0686474655     0.8924498391
Bq        -2.9929272153     0.2895913219     1.7642228519
Bq        -2.9545074020     0.0440981481     0.7955861710
Bq        -2.9737173086     0.1668447350     1.2799045115
Bq        -2.9726945188     0.6760932120     1.2541180324
Bq        -2.9650105562     0.6269945773     1.0603906963
Bq        -2.9765365001     0.7006425294     1.3509817005
Bq        -2.9611685748     0.6024452599     0.9635270282
Bq        -2.9803784815     0.7251918468     1.4478453686
Bq        -2.9573265935     0.5778959425     0.8666633601
Bq        -2.9842204628     0.7497411642     1.5447090367
Bq        -2.9534846122     0.5533466252     0.7697996920
Bq        -2.9880624441     0.7742904816     1.6415727048
Bq        -2.9496426308     0.5287973078     0.6729360239
Bq        -2.9688525375     0.6515438947     1.1572543643
Bq        -2.9678297477     1.1607923717     1.1314678853
Bq        -2.9601457850     1.1116937370     0.9377405491
Bq        -2.9716717290     1.1853416891     1.2283315534
Bq        -2.9563038037     1.0871444196     0.8408768810
Bq        -2.9755137104     1.2098910065     1.3251952215
Bq        -2.9524618224     1.0625951022     0.7440132129
Bq        -2.9793556917     1.2344403239     1.4220588896
Bq        -2.9486198410     1.0380457849     0.6471495449
Bq        -2.9831976730     1.2589896412     1.5189225577
Bq        -2.9447778597     1.0134964675     0.5502858768
Bq        -2.9639877664     1.1362430544     1.0346042172
Bq        -2.9629649766     1.6454915314     1.0088177382
Bq        -2.9552810139     1.5963928967     0.8150904020
Bq        -2.9668069579     1.6700408488     1.1056814063
Bq        -2.9514390326     1.5718435793     0.7182267339
Bq        -2.9706489392     1.6945901662     1.2025450743
Bq        -2.9475970513     1.5472942619     0.6213630658
Bq        -2.9744909206     1.7191394836     1.2994087424
Bq        -2.9437550699     1.5227449446     0.5244993977
Bq        -2.9783329019     1.7436888009     1.3962724105
Bq        -2.9399130886     1.4981956272     0.4276357296
Bq        -2.9591229952     1.6209422141     0.9119540701
Bq        -2.9581002054     2.1301906911     0.8861675910
Bq        -2.9504162428     2.0810920564     0.6924402548
Bq        -2.9619421868     2.1547400085     0.9830312591
Bq        -2.9465742615     2.0565427390     0.5955765868
Bq        -2.9657841681     2.1792893259     1.0798949272
Bq        -2.9427322801     2.0319934216     0.4987129187
Bq        -2.9696261494     2.2038386433     1.1767585953
Bq        -2.9388902988     2.0074441043     0.4018492506
Bq        -2.9734681308     2.2283879606     1.2736222634
Bq        -2.9350483175     1.9828947869     0.3049855825
Bq        -2.9542582241     2.1056413738     0.7893039229
Bq        -2.9532354343     2.6148898508     0.7635174439
Bq        -2.9455514717     2.5657912161     0.5697901077
Bq        -2.9570774157     2.6394391682     0.8603811120
Bq        -2.9417094903     2.5412418987     0.4729264396
Bq        -2.9609193970     2.6639884856     0.9572447801
Bq        -2.9378675090     2.5166925813     0.3760627715
Bq        -2.9647613783     2.6885378030     1.0541084482
Bq        -2.9340255277     2.4921432640     0.2791991034
Bq        -2.9686033596     2.7130871203     1.1509721163
Bq        -2.9301835464     2.4675939466     0.1823354354
Bq        -2.9493934530     2.5903405335     0.6666537758
Bq        -2.9483706632     3.0995890105     0.6408672968
Bq        -2.9406867005     3.0504903758     0.4471399606
Bq        -2.9522126445     3.1241383279     0.7377309648
Bq        -2.9368447192     3.0259410584     0.3502762925
Bq        -2.9560546259     3.1486876453     0.8345946329
Bq        -2.9330027379     3.0013917410     0.2534126244
Bq        -2.9598966072     3.1732369627     0.9314583010
Bq        -2.9291607566     2.9768424236     0.1565489563
Bq        -2.9637385885     3.1977862800     1.0283219691
Bq        -2.9253187752     2.9522931063     0.0596852882
Bq        -2.9445286819     3.0750396931     0.5440036287
Bq        -2.9435058921     3.5842881702     0.5182171496
Bq        -2.9358219294     3.5351895355     0.3244898134
Bq        -2.9473478734     3.6088374876     0.6150808177
Bq        -2.9319799481     3.5106402181     0.2276261454
Bq        -2.9511898547     3.6333868050     0.7119444858
Bq        -2.9281379668     3.4860909007     0.1307624773
Bq        -2.9550318361     3.6579361223     0.8088081539
Bq        -2.9242959854     3.4615415833     0.0338988092
Bq        -2.9588738174     3.6824854397     0.9056718220
Bq        -2.9204540041     3.4369922660    -0.0629648589
Bq        -2.9396639108     3.5597388528     0.4213534815
Bq        -2.9386411210     4.0689873299     0.3955670025
Bq        -2.9309571583     4.0198886952     0.2018396663
Bq        -2.9424831023     4.0935366473     0.4924306706
Bq        -2.9271151770     3.9953393778     0.1049759982
Bq        -2.9463250836     4.1180859647     0.5892943387
Bq        -2.9232731956     3.9707900604     0.0081123301
Bq        -2.9501670649     4.1426352820     0.6861580068
Bq        -2.9194312143     3.9462407430    -0.0887513380
Bq        -2.9540090463     4.1671845994     0.7830216748
Bq        -2.9155892330     3.9216914257    -0.1856150061
Bq        -2.9347991396     4.0444380125     0.2987033344
Bq        -2.9337763498     4.5536864896     0.2729168554
Bq        -2.9260923872     4.5045878549     0.0791895192
Bq        -2.9376183312     4.5782358070     0.3697805234
Bq        -2.9222504058     4.4800385375    -0.0176741489
Bq        -2.9414603125     4.6027851244     0.4666441915
Bq        -2.9184084245     4.4554892201    -0.1145378170
Bq        -2.9453022938     4.6273344417     0.5635078596
Bq        -2.9145664432     4.4309399027    -0.2114014851
Bq        -2.9491442752     4.6518837591     0.6603715277
Bq        -2.9107244619     4.4063905854    -0.3082651532
Bq        -2.9299343685     4.5291371722     0.1760531873
Bq        -2.4828169019    -0.2933051073     1.5192346460
Bq        -2.4751329392    -0.3424037421     1.3255073098
Bq        -2.4866588832    -0.2687557900     1.6160983141
Bq        -2.4712909579    -0.3669530595     1.2286436418
Bq        -2.4905008646    -0.2442064726     1.7129619822
Bq        -2.4674489766    -0.3915023768     1.1317799737
Bq        -2.4943428459    -0.2196571552     1.8098256503
Bq        -2.4636069952    -0.4160516942     1.0349163056
Bq        -2.4981848272    -0.1951078378     1.9066893184
Bq        -2.4597650139    -0.4406010116     0.9380526375
Bq        -2.4789749206    -0.3178544247     1.4223709779
Bq        -2.4779521308     0.1913940524     1.3965844989
Bq        -2.4702681681     0.1422954176     1.2028571627
Bq        -2.4817941121     0.2159433697     1.4934481670
Bq        -2.4664261868     0.1177461002     1.1059934946
Bq        -2.4856360934     0.2404926871     1.5903118351
Bq        -2.4625842055     0.0931967828     1.0091298265
Bq        -2.4894780748     0.2650420045     1.6871755032
Bq        -2.4587422241     0.0686474655     0.9122661584
Bq        -2.4933200561     0.2895913219     1.7840391713
Bq        -2.4549002428     0.0440981481     0.8154024904
Bq        -2.4741101494     0.1668447350     1.2997208308
Bq        -2.4730873596     0.6760932120     1.2739343518
Bq        -2.4654033970     0.6269945773     1.0802070156
Bq        -2.4769293410     0.7006425294     1.3707980198
Bq        -2.4615614157     0.6024452599     0.9833433475
Bq        -2.4807713223     0.7251918468     1.4676616879
Bq        -2.4577194343     0.5778959425     0.8864796794
Bq        -2.4846133036     0.7497411642     1.5645253560
Bq        -2.4538774530     0.5533466252     0.7896160113
Bq        -2.4884552850     0.7742904816     1.6613890241
Bq        -2.4500354717     0.5287973078     0.6927523432
Bq        -2.4692453783     0.6515438947     1.1770706837
Bq        -2.4682225885     1.1607923717     1.1512842046
Bq        -2.4605386259     1.1116937370     0.9575568684
Bq        -2.4720645699     1.1853416891     1.2481478727

1
2
3
4
5
6
7
8
9
10
11
12
13
14
15
16
17
18
19
20
21
22
23
24
25
26
27
28
29
30
31
32
33
34
35
36
37
38
39
40
41
42
43
44
45
46
47
48
49
50
51
52
53
54
55
56
57
58
59
60
61
62
63
64
65
66
67
68
69
70
71
72
73
74
75
76
77
78
79
80
81
82
83
84
85
86
87
88
89
90
91
92
93
94
95
96
97
98
99
100
101
102
103
104
105
106
107
108
109
110
111
112
113
114
115
116
117
118
119
120
121
122
123
124
125
126
127
128
129
130
131
132
133
134
135
136
137
138
139
140
141
142
143
144
145
146
147
148
149
150
151
152
153
154
155
156
157
158
159
160
161
162
163
164
165
166
167
168
169
170
171
172
173
174
175
176
177
178
179
180
181
182
183
184
185
186
187
188
189
190
191
192
193
194
195
196
197
198
199
200
201
202
203
204
205
206
207
208
209
210
211
212
213
214
215
216
217
218
219
220
221
222
223
224
225
226
227
228
229
230
231
232
233
234
235
236

