%nproc=8
%mem=1000MB
# rb3lyp/6-311+g** NMR geom=connectivity

Title

0 1
C    -4.0500558   -0.5771862    0.8136712
H    -5.0263804   -1.0082727    1.0024760
C    -3.9381552    0.6617804    0.2400876
H    -4.8252424    1.2338890   -0.0111295
C    -2.6768410    1.2433246    0.0057578
C    -1.4974121    0.5051527    0.2848253
C    -1.6508332   -0.7338728    0.9404026
H    -0.7713646   -1.2730967    1.2633753
C    -2.8898548   -1.2624035    1.1994307
H    -2.9683706   -2.2124563    1.7152676
C    -2.5773185    2.5963696   -0.4192930
H    -3.4870728    3.1412239   -0.6474055
C    -1.3741895    3.2147896   -0.4364030
H    -1.2997315    4.2742019   -0.6578144
C    -0.1719488    2.4994090   -0.1734588
C    -0.2043917    1.1018437    0.0192689
C     1.0513491    3.2042560   -0.0676222
H     1.0427344    4.2819499   -0.1896997
C     2.1942091    2.5487446    0.2579577
H     3.1168527    3.0912848    0.4334727
C     2.2216473    1.1336562    0.2934990
C     1.0486931    0.3945528    0.0302412
C     3.4483363    0.4614633    0.5573939
H     4.3095794    1.0606054    0.8334846
C     3.5427346   -0.8855926    0.4749463
H     4.4731467   -1.3939704    0.7038822
C     2.4490052   -1.6474447   -0.0196319
C     1.2150704   -1.0057258   -0.3013573
C     0.2531113   -1.7434440   -1.0216591
H    -0.6541356   -1.2535051   -1.3462847
C     0.4494193   -3.0628597   -1.3413779
H    -0.3083162   -3.5944309   -1.9054060
C     1.6251726   -3.7207967   -0.9552541
H     1.7670048   -4.7687404   -1.1927019
C     2.6109872   -3.0144177   -0.3183050
H     3.5525612   -3.4902813   -0.0646367
Bq         0.3144762236    -3.5426364693    -0.6133461332
Bq         0.1151674047    -3.6757147248    -0.1745225096
Bq         0.3543379874    -3.5160208182    -0.7011108579
Bq         0.0753056409    -3.7023303760    -0.0867577849
Bq         0.3941997512    -3.4894051671    -0.7888755826
Bq         0.0354438771    -3.7289460271     0.0010069398
Bq         0.4340615150    -3.4627895160    -0.8766403073
Bq         0.2347526960    -3.5958677715    -0.4378166837
Bq         0.1398585654    -3.1405185091    -0.2288857067
Bq         0.2195820930    -3.0872872069    -0.4044151562
Bq         0.0999968016    -3.1671341602    -0.1411209820
Bq         0.2594438568    -3.0606715558    -0.4921798809
Bq         0.0601350378    -3.1937498113    -0.0533562573
Bq         0.2993056205    -3.0340559046    -0.5799446056
Bq         0.0202732740    -3.2203654624     0.0344084674
Bq         0.3391673843    -3.0074402535    -0.6677093303
Bq        -0.0195884898    -3.2469811135     0.1221731921
Bq         0.3790291481    -2.9808246024    -0.7554740550
Bq         0.1797203292    -3.1139028580    -0.3166504314
Bq         0.0848261985    -2.6585535955    -0.1077194544
Bq         0.1645497261    -2.6053222933    -0.2832489039
Bq         0.0449644347    -2.6851692466    -0.0199547297
Bq         0.2044114899    -2.5787066422    -0.3710136286
Bq         0.0051026710    -2.7117848977     0.0678099950
Bq         0.2442732537    -2.5520909911    -0.4587783533
Bq        -0.0347590928    -2.7384005488     0.1555747197
Bq         0.2841350175    -2.5254753400    -0.5465430780
Bq        -0.0746208566    -2.7650161999     0.2433394444
Bq         0.3239967813    -2.4988596889    -0.6343078027
Bq         0.1246879623    -2.6319379444    -0.1954841792
Bq         0.0297938317    -2.1765886819     0.0134467978
Bq         0.1095173593    -2.1233573797    -0.1620826516
Bq        -0.0100679321    -2.2032043331     0.1012115226
Bq         0.1493791230    -2.0967417286    -0.2498473763
Bq        -0.0499296959    -2.2298199842     0.1889762473
Bq         0.1892408868    -2.0701260775    -0.3376121010
Bq        -0.0897914597    -2.2564356353     0.2767409720
Bq         0.2291026506    -2.0435104264    -0.4253768257
Bq        -0.1296532235    -2.2830512864     0.3645056967
Bq         0.2689644144    -2.0168947753    -0.5131415504
Bq         0.0696555955    -2.1499730308    -0.0743179269
Bq        -0.0252385352    -1.6946237684     0.1346130501
Bq         0.0544849924    -1.6413924662    -0.0409163993
Bq        -0.0651002990    -1.7212394195     0.2223777748
Bq         0.0943467562    -1.6147768151    -0.1286811240
Bq        -0.1049620628    -1.7478550706     0.3101424996
Bq         0.1342085200    -1.5881611640    -0.2164458487
Bq        -0.1448238265    -1.7744707217     0.3979072243
Bq         0.1740702838    -1.5615455129    -0.3042105734
Bq        -0.1846855903    -1.8010863728     0.4856719490
Bq         0.2139320475    -1.5349298617    -0.3919752981
Bq         0.0146232286    -1.6680081173     0.0468483254
Bq        -0.0802709020    -1.2126588548     0.2557793024
Bq        -0.0005473745    -1.1594275526     0.0802498530
Bq        -0.1201326658    -1.2392745059     0.3435440271
Bq         0.0393143893    -1.1328119015    -0.0075148717
Bq        -0.1599944296    -1.2658901570     0.4313087519
Bq         0.0791761531    -1.1061962504    -0.0952795964
Bq        -0.1998561934    -1.2925058081     0.5190734766
Bq         0.1190379169    -1.0795805993    -0.1830443211
Bq        -0.2397179572    -1.3191214593     0.6068382013
Bq         0.1588996807    -1.0529649482    -0.2708090458
Bq        -0.0404091383    -1.1860432037     0.1680145777
Bq        -0.1353032689    -0.7306939413     0.3769455547
Bq        -0.0555797413    -0.6774626391     0.2014161053
Bq        -0.1751650327    -0.7573095924     0.4647102794
Bq        -0.0157179775    -0.6508469879     0.1136513806
Bq        -0.2150267965    -0.7839252435     0.5524750041
Bq         0.0241437862    -0.6242313368     0.0258866559
Bq        -0.2548885603    -0.8105408946     0.6402397289
Bq         0.0640055500    -0.5976156857    -0.0618780688
Bq        -0.2947503241    -0.8371565457     0.7280044536
Bq         0.1038673138    -0.5710000346    -0.1496427936
Bq        -0.0954415051    -0.7040782902     0.2891808300
Bq        -0.1903356358    -0.2487290277     0.4981118070
Bq        -0.1106121082    -0.1954977255     0.3225823576
Bq        -0.2301973996    -0.2753446788     0.5858765317
Bq        -0.0707503444    -0.1688820744     0.2348176329
Bq        -0.2700591633    -0.3019603299     0.6736412564
Bq        -0.0308885806    -0.1422664233     0.1470529082
Bq        -0.3099209271    -0.3285759810     0.7614059811
Bq         0.0089731832    -0.1156507722     0.0592881834
Bq        -0.3497826909    -0.3551916321     0.8491707059
Bq         0.0488349470    -0.0890351211    -0.0284765413
Bq        -0.1504738720    -0.2221133766     0.4103470823
Bq         0.8152323994    -5.0683781633    -0.5067837778
Bq         0.8949559270    -5.0151468611    -0.6823132272
Bq         0.7753706356    -5.0949938144    -0.4190190530
Bq         0.9348176908    -4.9885312100    -0.7700779519
Bq         0.7355088718    -5.1216094655    -0.3312543283
Bq         0.9746794546    -4.9619155589    -0.8578426766
Bq         0.6956471080    -5.1482251166    -0.2434896036
Bq         1.0145412183    -4.9352999078    -0.9456074013
Bq         0.6557853443    -5.1748407677    -0.1557248789
Bq         1.0544029821    -4.9086842567    -1.0333721260
Bq         0.8550941632    -5.0417625122    -0.5945485025
Bq         0.7602000325    -4.5864132498    -0.3856175255
Bq         0.8399235601    -4.5331819475    -0.5611469749
Bq         0.7203382688    -4.6130289009    -0.2978528007
Bq         0.8797853239    -4.5065662964    -0.6489116996
Bq         0.6804765050    -4.6396445520    -0.2100880760
Bq         0.9196470877    -4.4799506453    -0.7366764243
Bq         0.6406147412    -4.6662602031    -0.1223233513
Bq         0.9595088515    -4.4533349942    -0.8244411490
Bq         0.6007529774    -4.6928758542    -0.0345586266
Bq         0.9993706153    -4.4267193431    -0.9122058737
Bq         0.8000617963    -4.5597975986    -0.4733822502
Bq         0.7051676657    -4.1044483362    -0.2644512732
Bq         0.7848911933    -4.0512170340    -0.4399807226
Bq         0.6653059019    -4.1310639873    -0.1766865485
Bq         0.8247529570    -4.0246013829    -0.5277454473
Bq         0.6254441381    -4.1576796384    -0.0889218237
Bq         0.8646147208    -3.9979857318    -0.6155101720
Bq         0.5855823743    -4.1842952895    -0.0011570990
Bq         0.9044764846    -3.9713700807    -0.7032748967
Bq         0.5457206105    -4.2109109406     0.0866076257
Bq         0.9443382484    -3.9447544296    -0.7910396214
Bq         0.7450294295    -4.0778326851    -0.3522159979
Bq         0.6501352988    -3.6224834226    -0.1432850209
Bq         0.7298588264    -3.5692521204    -0.3188144703
Bq         0.6102735350    -3.6490990737    -0.0555202962
Bq         0.7697205902    -3.5426364693    -0.4065791950
Bq         0.5704117712    -3.6757147248     0.0322444285
Bq         0.8095823540    -3.5160208182    -0.4943439197
Bq         0.5305500075    -3.7023303760     0.1200091533
Bq         0.8494441178    -3.4894051671    -0.5821086444
Bq         0.4906882437    -3.7289460271     0.2077738780
Bq         0.8893058815    -3.4627895160    -0.6698733692
Bq         0.6899970626    -3.5958677715    -0.2310497456
Bq         0.5951029320    -3.1405185091    -0.0221187686
Bq         0.6748264595    -3.0872872069    -0.1976482180
Bq         0.5552411682    -3.1671341602     0.0656459561
Bq         0.7146882233    -3.0606715558    -0.2854129427
Bq         0.5153794044    -3.1937498113     0.1534106808
Bq         0.7545499871    -3.0340559046    -0.3731776674
Bq         0.4755176406    -3.2203654624     0.2411754055
Bq         0.7944117509    -3.0074402535    -0.4609423922
Bq         0.4356558768    -3.2469811135     0.3289401303
Bq         0.8342735147    -2.9808246024    -0.5487071169
Bq         0.6349646958    -3.1139028580    -0.1098834933
Bq         0.5400705651    -2.6585535955     0.0990474837
Bq         0.6197940927    -2.6053222933    -0.0764819657
Bq         0.5002088013    -2.6851692466     0.1868122084
Bq         0.6596558565    -2.5787066422    -0.1642466904
Bq         0.4603470375    -2.7117848977     0.2745769331
Bq         0.6995176203    -2.5520909911    -0.2520114152
Bq         0.4204852737    -2.7384005488     0.3623416578
Bq         0.7393793840    -2.5254753400    -0.3397761399
Bq         0.3806235100    -2.7650161999     0.4501063825
Bq         0.7792411478    -2.4988596889    -0.4275408646
Bq         0.5799323289    -2.6319379444     0.0112827590
Bq         0.4850381982    -2.1765886819     0.2202137360
Bq         0.5647617258    -2.1233573797     0.0446842866
Bq         0.4451764345    -2.2032043331     0.3079784607
Bq         0.6046234896    -2.0967417286    -0.0430804382
Bq         0.4053146707    -2.2298199842     0.3957431854
Bq         0.6444852534    -2.0701260775    -0.1308451629
Bq         0.3654529069    -2.2564356353     0.4835079101
Bq         0.6843470172    -2.0435104264    -0.2186098876
Bq         0.3255911431    -2.2830512864     0.5712726348
Bq         0.7242087810    -2.0168947753    -0.3063746123
Bq         0.5248999620    -2.1499730308     0.1324490113
Bq         0.4300058314    -1.6946237684     0.3413799883
Bq         0.5097293590    -1.6413924662     0.1658505389
Bq         0.3901440676    -1.7212394195     0.4291447130
Bq         0.5495911227    -1.6147768151     0.0780858141
Bq         0.3502823038    -1.7478550706     0.5169094377
Bq         0.5894528865    -1.5881611640    -0.0096789106
Bq         0.3104205400    -1.7744707217     0.6046741624
Bq         0.6293146503    -1.5615455129    -0.0974436353
Bq         0.2705587762    -1.8010863728     0.6924388871
Bq         0.6691764141    -1.5349298617    -0.1852083600
Bq         0.4698675952    -1.6680081173     0.2536152636
Bq         0.3749734645    -1.2126588548     0.4625462406
Bq         0.4546969921    -1.1594275526     0.2870167911
Bq         0.3351117007    -1.2392745059     0.5503109653
Bq         0.4945587559    -1.1328119015     0.1992520664
Bq         0.2952499369    -1.2658901570     0.6380756900
Bq         0.5344205197    -1.1061962504     0.1114873417
Bq         0.2553881732    -1.2925058081     0.7258404147
Bq         0.5742822835    -1.0795805993     0.0237226170
Bq         0.2155264094    -1.3191214593     0.8136051394
Bq         0.6141440472    -1.0529649482    -0.0640421077
Bq         0.4148352283    -1.1860432037     0.3747815159
Bq         0.3199410977    -0.7306939413     0.5837124929
Bq         0.3996646252    -0.6774626391     0.4081830434
Bq         0.2800793339    -0.7573095924     0.6714772176
Bq         0.4395263890    -0.6508469879     0.3204183187
Bq         0.2402175701    -0.7839252435     0.7592419423
Bq         0.4793881528    -0.6242313368     0.2326535940
Bq         0.2003558063    -0.8105408946     0.8470066670
Bq         0.5192499166    -0.5976156857     0.1448888693
Bq         0.1604940425    -0.8371565457     0.9347713917
Bq         0.5591116804    -0.5710000346     0.0571241446
Bq         0.3598028614    -0.7040782902     0.4959477681
Bq         0.2649087308    -0.2487290277     0.7048787451
Bq         0.3446322584    -0.1954977255     0.5293492957
Bq         0.2250469670    -0.2753446788     0.7926434699
Bq         0.3844940222    -0.1688820744     0.4415845710
Bq         0.1851852032    -0.3019603299     0.8804081946

1
2
3
4
5
6
7
8
9
10
11
12
13
14
15
16
17
18
19
20
21
22
23
24
25
26
27
28
29
30
31
32
33
34
35
36
37
38
39
40
41
42
43
44
45
46
47
48
49
50
51
52
53
54
55
56
57
58
59
60
61
62
63
64
65
66
67
68
69
70
71
72
73
74
75
76
77
78
79
80
81
82
83
84
85
86
87
88
89
90
91
92
93
94
95
96
97
98
99
100
101
102
103
104
105
106
107
108
109
110
111
112
113
114
115
116
117
118
119
120
121
122
123
124
125
126
127
128
129
130
131
132
133
134
135
136
137
138
139
140
141
142
143
144
145
146
147
148
149
150
151
152
153
154
155
156
157
158
159
160
161
162
163
164
165
166
167
168
169
170
171
172
173
174
175
176
177
178
179
180
181
182
183
184
185
186
187
188
189
190
191
192
193
194
195
196
197
198
199
200
201
202
203
204
205
206
207
208
209
210
211
212
213
214
215
216
217
218
219
220
221
222
223
224
225
226
227
228
229
230
231
232
233
234
235
236

