%nproc=8
%mem=1000MB
# rb3lyp/6-311+g** NMR geom=connectivity

Title

0 1
C    -4.0500558   -0.5771862    0.8136712
H    -5.0263804   -1.0082727    1.0024760
C    -3.9381552    0.6617804    0.2400876
H    -4.8252424    1.2338890   -0.0111295
C    -2.6768410    1.2433246    0.0057578
C    -1.4974121    0.5051527    0.2848253
C    -1.6508332   -0.7338728    0.9404026
H    -0.7713646   -1.2730967    1.2633753
C    -2.8898548   -1.2624035    1.1994307
H    -2.9683706   -2.2124563    1.7152676
C    -2.5773185    2.5963696   -0.4192930
H    -3.4870728    3.1412239   -0.6474055
C    -1.3741895    3.2147896   -0.4364030
H    -1.2997315    4.2742019   -0.6578144
C    -0.1719488    2.4994090   -0.1734588
C    -0.2043917    1.1018437    0.0192689
C     1.0513491    3.2042560   -0.0676222
H     1.0427344    4.2819499   -0.1896997
C     2.1942091    2.5487446    0.2579577
H     3.1168527    3.0912848    0.4334727
C     2.2216473    1.1336562    0.2934990
C     1.0486931    0.3945528    0.0302412
C     3.4483363    0.4614633    0.5573939
H     4.3095794    1.0606054    0.8334846
C     3.5427346   -0.8855926    0.4749463
H     4.4731467   -1.3939704    0.7038822
C     2.4490052   -1.6474447   -0.0196319
C     1.2150704   -1.0057258   -0.3013573
C     0.2531113   -1.7434440   -1.0216591
H    -0.6541356   -1.2535051   -1.3462847
C     0.4494193   -3.0628597   -1.3413779
H    -0.3083162   -3.5944309   -1.9054060
C     1.6251726   -3.7207967   -0.9552541
H     1.7670048   -4.7687404   -1.1927019
C     2.6109872   -3.0144177   -0.3183050
H     3.5525612   -3.4902813   -0.0646367
Bq        -0.9355968910     2.4921432640     0.3584643807
Bq        -0.9701747230     2.7130871203     1.2302373935
Bq        -0.9317549097     2.4675939466     0.2616007126
Bq        -0.9509648163     2.5903405335     0.7459190531
Bq        -0.9499420265     3.0995890105     0.7201325740
Bq        -0.9422580639     3.0504903758     0.5264052379
Bq        -0.9537840079     3.1241383279     0.8169962421
Bq        -0.9384160826     3.0259410584     0.4295415698
Bq        -0.9576259892     3.1486876453     0.9138599102
Bq        -0.9345741012     3.0013917410     0.3326779017
Bq        -0.9614679705     3.1732369627     1.0107235783
Bq        -0.9307321199     2.9768424236     0.2358142336
Bq        -0.9653099519     3.1977862800     1.1075872464
Bq        -0.9268901386     2.9522931063     0.1389505655
Bq        -0.9461000452     3.0750396931     0.6232689059
Bq        -0.9450772554     3.5842881702     0.5974824269
Bq        -0.9373932928     3.5351895355     0.4037550907
Bq        -0.9489192368     3.6088374876     0.6943460950
Bq        -0.9335513114     3.5106402181     0.3068914226
Bq        -0.9527612181     3.6333868050     0.7912097631
Bq        -0.9297093301     3.4860909007     0.2100277545
Bq        -0.9566031994     3.6579361223     0.8880734312
Bq        -0.9258673488     3.4615415833     0.1131640865
Bq        -0.9604451807     3.6824854397     0.9849370993
Bq        -0.9220253674     3.4369922660     0.0163004184
Bq        -0.9412352741     3.5597388528     0.5006187588
Bq        -0.9402124843     4.0689873299     0.4748322798
Bq        -0.9325285216     4.0198886952     0.2811049436
Bq        -0.9440544656     4.0935366473     0.5716959479
Bq        -0.9286865403     3.9953393778     0.1842412755
Bq        -0.9478964470     4.1180859647     0.6685596159
Bq        -0.9248445590     3.9707900604     0.0873776074
Bq        -0.9517384283     4.1426352820     0.7654232840
Bq        -0.9210025777     3.9462407430    -0.0094860607
Bq        -0.9555804096     4.1671845994     0.8622869521
Bq        -0.9171605963     3.9216914257    -0.1063497288
Bq        -0.9363705030     4.0444380125     0.3779686117
Bq        -0.9353477132     4.5536864896     0.3521821326
Bq        -0.9276637505     4.5045878549     0.1584547965
Bq        -0.9391896945     4.5782358070     0.4490458007
Bq        -0.9238217692     4.4800385375     0.0615911284
Bq        -0.9430316758     4.6027851244     0.5459094688
Bq        -0.9199797879     4.4554892201    -0.0352725397
Bq        -0.9468736572     4.6273344417     0.6427731369
Bq        -0.9161378065     4.4309399027    -0.1321362078
Bq        -0.9507156385     4.6518837591     0.7396368050
Bq        -0.9122958252     4.4063905854    -0.2289998759
Bq        -0.9315057318     4.5291371722     0.2553184645
Bq        -0.4843882652    -0.2933051073     1.5984999233
Bq        -0.4767043026    -0.3424037421     1.4047725871
Bq        -0.4882302466    -0.2687557900     1.6953635914
Bq        -0.4728623212    -0.3669530595     1.3079089190
Bq        -0.4920722279    -0.2442064726     1.7922272595
Bq        -0.4690203399    -0.3915023768     1.2110452509
Bq        -0.4959142092    -0.2196571552     1.8890909276
Bq        -0.4651783586    -0.4160516942     1.1141815829
Bq        -0.4997561906    -0.1951078378     1.9859545957
Bq        -0.4613363773    -0.4406010116     1.0173179148
Bq        -0.4805462839    -0.3178544247     1.5016362552
Bq        -0.4795234941     0.1913940524     1.4758497762
Bq        -0.4718395315     0.1422954176     1.2821224400
Bq        -0.4833654754     0.2159433697     1.5727134443
Bq        -0.4679975501     0.1177461002     1.1852587719
Bq        -0.4872074568     0.2404926871     1.6695771124
Bq        -0.4641555688     0.0931967828     1.0883951038
Bq        -0.4910494381     0.2650420045     1.7664407804
Bq        -0.4603135875     0.0686474655     0.9915314357
Bq        -0.4948914194     0.2895913219     1.8633044485
Bq        -0.4564716061     0.0440981481     0.8946677676
Bq        -0.4756815128     0.1668447350     1.3789861081
Bq        -0.4746587230     0.6760932120     1.3531996290
Bq        -0.4669747603     0.6269945773     1.1594722929
Bq        -0.4785007043     0.7006425294     1.4500632971
Bq        -0.4631327790     0.6024452599     1.0626086248
Bq        -0.4823426856     0.7251918468     1.5469269652
Bq        -0.4592907977     0.5778959425     0.9657449567
Bq        -0.4861846670     0.7497411642     1.6437906333
Bq        -0.4554488163     0.5533466252     0.8688812886
Bq        -0.4900266483     0.7742904816     1.7406543014
Bq        -0.4516068350     0.5287973078     0.7720176205
Bq        -0.4708167417     0.6515438947     1.2563359609
Bq        -0.4697939519     1.1607923717     1.2305494819
Bq        -0.4621099892     1.1116937370     1.0368221457
Bq        -0.4736359332     1.1853416891     1.3274131500
Bq        -0.4582680079     1.0871444196     0.9399584776
Bq        -0.4774779145     1.2098910065     1.4242768181
Bq        -0.4544260266     1.0625951022     0.8430948095
Bq        -0.4813198959     1.2344403239     1.5211404862
Bq        -0.4505840452     1.0380457849     0.7462311415
Bq        -0.4851618772     1.2589896412     1.6180041543
Bq        -0.4467420639     1.0134964675     0.6493674734
Bq        -0.4659519705     1.1362430544     1.1336858138
Bq        -0.4649291807     1.6454915314     1.1078993348
Bq        -0.4572452181     1.5963928967     0.9141719986
Bq        -0.4687711621     1.6700408488     1.2047630029
Bq        -0.4534032368     1.5718435793     0.8173083305
Bq        -0.4726131434     1.6945901662     1.3016266709
Bq        -0.4495612554     1.5472942619     0.7204446624
Bq        -0.4764551247     1.7191394836     1.3984903390
Bq        -0.4457192741     1.5227449446     0.6235809943
Bq        -0.4802971061     1.7436888009     1.4953540071
Bq        -0.4418772928     1.4981956272     0.5267173262
Bq        -0.4610871994     1.6209422141     1.0110356667
Bq        -0.4600644096     2.1301906911     0.9852491876
Bq        -0.4523804470     2.0810920564     0.7915218515
Bq        -0.4639063910     2.1547400085     1.0821128557
Bq        -0.4485384656     2.0565427390     0.6946581834
Bq        -0.4677483723     2.1792893259     1.1789765238
Bq        -0.4446964843     2.0319934216     0.5977945153
Bq        -0.4715903536     2.2038386433     1.2758401919
Bq        -0.4408545030     2.0074441043     0.5009308472
Bq        -0.4754323349     2.2283879606     1.3727038600
Bq        -0.4370125216     1.9828947869     0.4040671791
Bq        -0.4562224283     2.1056413738     0.8883855195
Bq        -0.4551996385     2.6148898508     0.8625990405
Bq        -0.4475156758     2.5657912161     0.6688717043
Bq        -0.4590416198     2.6394391682     0.9594627086
Bq        -0.4436736945     2.5412418987     0.5720080362
Bq        -0.4628836012     2.6639884856     1.0563263767
Bq        -0.4398317132     2.5166925813     0.4751443681
Bq        -0.4667255825     2.6885378030     1.1531900448
Bq        -0.4359897319     2.4921432640     0.3782807000
Bq        -0.4705675638     2.7130871203     1.2500537129
Bq        -0.4321477505     2.4675939466     0.2814170320
Bq        -0.4513576572     2.5903405335     0.7657353724
Bq        -0.4503348674     3.0995890105     0.7399488934
Bq        -0.4426509047     3.0504903758     0.5462215572
Bq        -0.4541768487     3.1241383279     0.8368125614
Bq        -0.4388089234     3.0259410584     0.4493578891
Bq        -0.4580188300     3.1486876453     0.9336762295
Bq        -0.4349669421     3.0013917410     0.3524942210
Bq        -0.4618608114     3.1732369627     1.0305398976
Bq        -0.4311249607     2.9768424236     0.2556305529
Bq        -0.4657027927     3.1977862800     1.1274035657
Bq        -0.4272829794     2.9522931063     0.1587668848
Bq        -0.4464928861     3.0750396931     0.6430852253
Bq        -0.4454700963     3.5842881702     0.6172987462
Bq        -0.4377861336     3.5351895355     0.4235714100
Bq        -0.4493120776     3.6088374876     0.7141624143
Bq        -0.4339441523     3.5106402181     0.3267077420
Bq        -0.4531540589     3.6333868050     0.8110260824
Bq        -0.4301021709     3.4860909007     0.2298440739
Bq        -0.4569960402     3.6579361223     0.9078897505
Bq        -0.4262601896     3.4615415833     0.1329804058
Bq        -0.4608380216     3.6824854397     1.0047534186
Bq        -0.4224182083     3.4369922660     0.0361167377
Bq        -0.4416281149     3.5597388528     0.5204350781
Bq        -0.4406053251     4.0689873299     0.4946485991
Bq        -0.4329213625     4.0198886952     0.3009212629
Bq        -0.4444473065     4.0935366473     0.5915122672
Bq        -0.4290793811     3.9953393778     0.2040575948
Bq        -0.4482892878     4.1180859647     0.6883759353
Bq        -0.4252373998     3.9707900604     0.1071939267
Bq        -0.4521312691     4.1426352820     0.7852396034
Bq        -0.4213954185     3.9462407430     0.0103302586
Bq        -0.4559732505     4.1671845994     0.8821032714
Bq        -0.4175534372     3.9216914257    -0.0865334095
Bq        -0.4367633438     4.0444380125     0.3977849310
Bq        -0.4357405540     4.5536864896     0.3719984520
Bq        -0.4280565914     4.5045878549     0.1782711158
Bq        -0.4395825353     4.5782358070     0.4688621200
Bq        -0.4242146100     4.4800385375     0.0814074477
Bq        -0.4434245167     4.6027851244     0.5657257881
Bq        -0.4203726287     4.4554892201    -0.0154562204
Bq        -0.4472664980     4.6273344417     0.6625894562
Bq        -0.4165306474     4.4309399027    -0.1123198885
Bq        -0.4511084793     4.6518837591     0.7594531243
Bq        -0.4126886660     4.4063905854    -0.2091835566
Bq        -0.4318985727     4.5291371722     0.2751347839
Bq         0.0152188939    -0.2933051073     1.6183162426
Bq         0.0229028566    -0.3424037421     1.4245889064
Bq         0.0113769126    -0.2687557900     1.7151799107
Bq         0.0267448379    -0.3669530595     1.3277252384
Bq         0.0075349313    -0.2442064726     1.8120435788
Bq         0.0305868192    -0.3915023768     1.2308615703
Bq         0.0036929499    -0.2196571552     1.9089072469
Bq         0.0344288006    -0.4160516942     1.1339979022
Bq        -0.0001490314    -0.1951078378     2.0057709150
Bq         0.0382707819    -0.4406010116     1.0371342341
Bq         0.0190608753    -0.3178544247     1.5214525745
Bq         0.0200836651     0.1913940524     1.4956660955
Bq         0.0277676277     0.1422954176     1.3019387593
Bq         0.0162416837     0.2159433697     1.5925297636
Bq         0.0316096090     0.1177461002     1.2050750912
Bq         0.0123997024     0.2404926871     1.6893934317
Bq         0.0354515904     0.0931967828     1.1082114231
Bq         0.0085577211     0.2650420045     1.7862570998
Bq         0.0392935717     0.0686474655     1.0113477550
Bq         0.0047157397     0.2895913219     1.8831207679
Bq         0.0431355530     0.0440981481     0.9144840870
Bq         0.0239256464     0.1668447350     1.3988024274
Bq         0.0249484362     0.6760932120     1.3730159484
Bq         0.0326323988     0.6269945773     1.1792886122
Bq         0.0211064548     0.7006425294     1.4698796164
Bq         0.0364743802     0.6024452599     1.0824249441
Bq         0.0172644735     0.7251918468     1.5667432845
Bq         0.0403163615     0.5778959425     0.9855612760
Bq         0.0134224922     0.7497411642     1.6636069526
Bq         0.0441583428     0.5533466252     0.8886976079
Bq         0.0095805109     0.7742904816     1.7604706207

1
2
3
4
5
6
7
8
9
10
11
12
13
14
15
16
17
18
19
20
21
22
23
24
25
26
27
28
29
30
31
32
33
34
35
36
37
38
39
40
41
42
43
44
45
46
47
48
49
50
51
52
53
54
55
56
57
58
59
60
61
62
63
64
65
66
67
68
69
70
71
72
73
74
75
76
77
78
79
80
81
82
83
84
85
86
87
88
89
90
91
92
93
94
95
96
97
98
99
100
101
102
103
104
105
106
107
108
109
110
111
112
113
114
115
116
117
118
119
120
121
122
123
124
125
126
127
128
129
130
131
132
133
134
135
136
137
138
139
140
141
142
143
144
145
146
147
148
149
150
151
152
153
154
155
156
157
158
159
160
161
162
163
164
165
166
167
168
169
170
171
172
173
174
175
176
177
178
179
180
181
182
183
184
185
186
187
188
189
190
191
192
193
194
195
196
197
198
199
200
201
202
203
204
205
206
207
208
209
210
211
212
213
214
215
216
217
218
219
220
221
222
223
224
225
226
227
228
229
230
231
232
233
234
235
236

