%nproc=8
%mem=1000MB
# rb3lyp/6-311+g** NMR geom=connectivity

Title

0 1
C    -4.0500558   -0.5771862    0.8136712
H    -5.0263804   -1.0082727    1.0024760
C    -3.9381552    0.6617804    0.2400876
H    -4.8252424    1.2338890   -0.0111295
C    -2.6768410    1.2433246    0.0057578
C    -1.4974121    0.5051527    0.2848253
C    -1.6508332   -0.7338728    0.9404026
H    -0.7713646   -1.2730967    1.2633753
C    -2.8898548   -1.2624035    1.1994307
H    -2.9683706   -2.2124563    1.7152676
C    -2.5773185    2.5963696   -0.4192930
H    -3.4870728    3.1412239   -0.6474055
C    -1.3741895    3.2147896   -0.4364030
H    -1.2997315    4.2742019   -0.6578144
C    -0.1719488    2.4994090   -0.1734588
C    -0.2043917    1.1018437    0.0192689
C     1.0513491    3.2042560   -0.0676222
H     1.0427344    4.2819499   -0.1896997
C     2.1942091    2.5487446    0.2579577
H     3.1168527    3.0912848    0.4334727
C     2.2216473    1.1336562    0.2934990
C     1.0486931    0.3945528    0.0302412
C     3.4483363    0.4614633    0.5573939
H     4.3095794    1.0606054    0.8334846
C     3.5427346   -0.8855926    0.4749463
H     4.4731467   -1.3939704    0.7038822
C     2.4490052   -1.6474447   -0.0196319
C     1.2150704   -1.0057258   -0.3013573
C     0.2531113   -1.7434440   -1.0216591
H    -0.6541356   -1.2535051   -1.3462847
C     0.4494193   -3.0628597   -1.3413779
H    -0.3083162   -3.5944309   -1.9054060
C     1.6251726   -3.7207967   -0.9552541
H     1.7670048   -4.7687404   -1.1927019
C     2.6109872   -3.0144177   -0.3183050
H     3.5525612   -3.4902813   -0.0646367
Bq         2.5411305636    -0.2487290277     1.7387134359
Bq         2.6208540912    -0.1954977255     1.5631839864
Bq         2.5012687999    -0.2753446788     1.8264781606
Bq         2.6607158550    -0.1688820744     1.4754192617
Bq         2.4614070361    -0.3019603299     1.9142428853
Bq         2.7005776188    -0.1422664233     1.3876545370
Bq         2.4215452723    -0.3285759810     2.0020076100
Bq         2.7404393826    -0.1156507722     1.2998898123
Bq         2.3816835085    -0.3551916321     2.0897723347
Bq         2.7803011464    -0.0890351211     1.2121250876
Bq         2.5809923274    -0.2221133766     1.6509487111
Bq         3.5466985988    -5.0683781633     0.7338178511
Bq         3.6264221264    -5.0151468611     0.5582884017
Bq         3.5068368350    -5.0949938144     0.8215825758
Bq         3.6662838902    -4.9885312100     0.4705236770
Bq         3.4669750712    -5.1216094655     0.9093473005
Bq         3.7061456540    -4.9619155589     0.3827589522
Bq         3.4271133074    -5.1482251166     0.9971120252
Bq         3.7460074177    -4.9352999078     0.2949942275
Bq         3.3872515437    -5.1748407677     1.0848767499
Bq         3.7858691815    -4.9086842567     0.2072295028
Bq         3.5865603626    -5.0417625122     0.6460531264
Bq         3.4916662320    -4.5864132498     0.8549841034
Bq         3.5713897595    -4.5331819475     0.6794546540
Bq         3.4518044682    -4.6130289009     0.9427488281
Bq         3.6112515233    -4.5065662964     0.5916899293
Bq         3.4119427044    -4.6396445520     1.0305135528
Bq         3.6511132871    -4.4799506453     0.5039252045
Bq         3.3720809406    -4.6662602031     1.1182782775
Bq         3.6909750509    -4.4533349942     0.4161604798
Bq         3.3322191768    -4.6928758542     1.2060430022
Bq         3.7308368147    -4.4267193431     0.3283957551
Bq         3.5315279957    -4.5597975986     0.7672193787
Bq         3.4366338651    -4.1044483362     0.9761503557
Bq         3.5163573927    -4.0512170340     0.8006209063
Bq         3.3967721013    -4.1310639873     1.0639150804
Bq         3.5562191565    -4.0246013829     0.7128561815
Bq         3.3569103375    -4.1576796384     1.1516798051
Bq         3.5960809202    -3.9979857318     0.6250914568
Bq         3.3170485737    -4.1842952895     1.2394445298
Bq         3.6359426840    -3.9713700807     0.5373267321
Bq         3.2771868099    -4.2109109406     1.3272092545
Bq         3.6758044478    -3.9447544296     0.4495620074
Bq         3.4764956289    -4.0778326851     0.8883856310
Bq         3.3816014982    -3.6224834226     1.0973166080
Bq         3.4613250258    -3.5692521204     0.9217871585
Bq         3.3417397344    -3.6490990737     1.1850813327
Bq         3.5011867896    -3.5426364693     0.8340224338
Bq         3.3018779707    -3.6757147248     1.2728460574
Bq         3.5410485534    -3.5160208182     0.7462577091
Bq         3.2620162069    -3.7023303760     1.3606107821
Bq         3.5809103172    -3.4894051671     0.6584929844
Bq         3.2221544431    -3.7289460271     1.4483755068
Bq         3.6207720810    -3.4627895160     0.5707282597
Bq         3.4214632620    -3.5958677715     1.0095518833
Bq         3.3265691314    -3.1405185091     1.2184828603
Bq         3.4062926589    -3.0872872069     1.0429534108
Bq         3.2867073676    -3.1671341602     1.3062475850
Bq         3.4461544227    -3.0606715558     0.9551886861
Bq         3.2468456038    -3.1937498113     1.3940123097
Bq         3.4860161865    -3.0340559046     0.8674239614
Bq         3.2069838400    -3.2203654624     1.4817770344
Bq         3.5258779503    -3.0074402535     0.7796592367
Bq         3.1671220762    -3.2469811135     1.5695417591
Bq         3.5657397141    -2.9808246024     0.6918945120
Bq         3.3664308952    -3.1139028580     1.1307181355
Bq         3.2715367645    -2.6585535955     1.3396491125
Bq         3.3512602921    -2.6053222933     1.1641196631
Bq         3.2316750007    -2.6851692466     1.4274138373
Bq         3.3911220559    -2.5787066422     1.0763549384
Bq         3.1918132369    -2.7117848977     1.5151785620
Bq         3.4309838197    -2.5520909911     0.9885902137
Bq         3.1519514731    -2.7384005488     1.6029432867
Bq         3.4708455834    -2.5254753400     0.9008254890
Bq         3.1120897094    -2.7650161999     1.6907080114
Bq         3.5107073472    -2.4988596889     0.8130607643
Bq         3.3113985283    -2.6319379444     1.2518843878
Bq         3.2165043976    -2.1765886819     1.4608153648
Bq         3.2962279252    -2.1233573797     1.2852859154
Bq         3.1766426339    -2.2032043331     1.5485800896
Bq         3.3360896890    -2.0967417286     1.1975211907
Bq         3.1367808701    -2.2298199842     1.6363448143
Bq         3.3759514528    -2.0701260775     1.1097564660
Bq         3.0969191063    -2.2564356353     1.7241095390
Bq         3.4158132166    -2.0435104264     1.0219917413
Bq         3.0570573425    -2.2830512864     1.8118742637
Bq         3.4556749804    -2.0168947753     0.9342270166
Bq         3.2563661614    -2.1499730308     1.3730506401
Bq         3.1614720308    -1.6946237684     1.5819816171
Bq         3.2411955584    -1.6413924662     1.4064521677
Bq         3.1216102670    -1.7212394195     1.6697463418
Bq         3.2810573222    -1.6147768151     1.3186874430
Bq         3.0817485032    -1.7478550706     1.7575110666
Bq         3.3209190859    -1.5881611640     1.2309227183
Bq         3.0418867394    -1.7744707217     1.8452757913
Bq         3.3607808497    -1.5615455129     1.1431579936
Bq         3.0020249756    -1.8010863728     1.9330405160
Bq         3.4006426135    -1.5349298617     1.0553932689
Bq         3.2013337946    -1.6680081173     1.4942168924
Bq         3.1064396639    -1.2126588548     1.7031478694
Bq         3.1861631915    -1.1594275526     1.5276184200
Bq         3.0665779001    -1.2392745059     1.7909125941
Bq         3.2260249553    -1.1328119015     1.4398536953
Bq         3.0267161364    -1.2658901570     1.8786773188
Bq         3.2658867191    -1.1061962504     1.3520889706
Bq         2.9868543726    -1.2925058081     1.9664420436
Bq         3.3057484829    -1.0795805993     1.2643242459
Bq         2.9469926088    -1.3191214593     2.0542067683
Bq         3.3456102467    -1.0529649482     1.1765595211
Bq         3.1463014277    -1.1860432037     1.6153831447
Bq         3.0514072971    -0.7306939413     1.8243141217
Bq         3.1311308246    -0.6774626391     1.6487846723
Bq         3.0115455333    -0.7573095924     1.9120788464
Bq         3.1709925884    -0.6508469879     1.5610199476
Bq         2.9716837695    -0.7839252435     1.9998435711
Bq         3.2108543522    -0.6242313368     1.4732552229
Bq         2.9318220057    -0.8105408946     2.0876082958
Bq         3.2507161160    -0.5976156857     1.3854904981
Bq         2.8919602419    -0.8371565457     2.1753730206
Bq         3.2905778798    -0.5710000346     1.2977257734
Bq         3.0912690609    -0.7040782902     1.7365493970
Bq         2.9963749302    -0.2487290277     1.9454803740
Bq         3.0760984578    -0.1954977255     1.7699509246
Bq         2.9565131664    -0.2753446788     2.0332450987
Bq         3.1159602216    -0.1688820744     1.6821861999
Bq         2.9166514026    -0.3019603299     2.1210098234
Bq         3.1558219854    -0.1422664233     1.5944214751
Bq         2.8767896388    -0.3285759810     2.2087745481
Bq         3.1956837491    -0.1156507722     1.5066567504
Bq         2.8369278751    -0.3551916321     2.2965392728
Bq         3.2355455129    -0.0890351211     1.4188920257
Bq         3.0362366940    -0.2221133766     1.8577156493

1
2
3
4
5
6
7
8
9
10
11
12
13
14
15
16
17
18
19
20
21
22
23
24
25
26
27
28
29
30
31
32
33
34
35
36
37
38
39
40
41
42
43
44
45
46
47
48
49
50
51
52
53
54
55
56
57
58
59
60
61
62
63
64
65
66
67
68
69
70
71
72
73
74
75
76
77
78
79
80
81
82
83
84
85
86
87
88
89
90
91
92
93
94
95
96
97
98
99
100
101
102
103
104
105
106
107
108
109
110
111
112
113
114
115
116
117
118
119
120
121
122
123
124
125
126
127
128
129
130
131
132
133
134
135
136
137
138
139
140
141
142
143
144
145
146
147
148
149
150
151
152
153
154
155
156
157
158
159
160
161
162
163
164
165
166
167
168

