%nproc=8
%mem=1000MB
# rb3lyp/6-311+g** NMR geom=connectivity

Title

0 1
C    -4.0500558   -0.5771862    0.8136712
H    -5.0263804   -1.0082727    1.0024760
C    -3.9381552    0.6617804    0.2400876
H    -4.8252424    1.2338890   -0.0111295
C    -2.6768410    1.2433246    0.0057578
C    -1.4974121    0.5051527    0.2848253
C    -1.6508332   -0.7338728    0.9404026
H    -0.7713646   -1.2730967    1.2633753
C    -2.8898548   -1.2624035    1.1994307
H    -2.9683706   -2.2124563    1.7152676
C    -2.5773185    2.5963696   -0.4192930
H    -3.4870728    3.1412239   -0.6474055
C    -1.3741895    3.2147896   -0.4364030
H    -1.2997315    4.2742019   -0.6578144
C    -0.1719488    2.4994090   -0.1734588
C    -0.2043917    1.1018437    0.0192689
C     1.0513491    3.2042560   -0.0676222
H     1.0427344    4.2819499   -0.1896997
C     2.1942091    2.5487446    0.2579577
H     3.1168527    3.0912848    0.4334727
C     2.2216473    1.1336562    0.2934990
C     1.0486931    0.3945528    0.0302412
C     3.4483363    0.4614633    0.5573939
H     4.3095794    1.0606054    0.8334846
C     3.5427346   -0.8855926    0.4749463
H     4.4731467   -1.3939704    0.7038822
C     2.4490052   -1.6474447   -0.0196319
C     1.2150704   -1.0057258   -0.3013573
C     0.2531113   -1.7434440   -1.0216591
H    -0.6541356   -1.2535051   -1.3462847
C     0.4494193   -3.0628597   -1.3413779
H    -0.3083162   -3.5944309   -1.9054060
C     1.6251726   -3.7207967   -0.9552541
H     1.7670048   -4.7687404   -1.1927019
C     2.6109872   -3.0144177   -0.3183050
H     3.5525612   -3.4902813   -0.0646367
Bq         1.4337943333    -2.3657814333    -0.6595975500
Bq        -1.0057450669    -5.0683781633    -1.3338515303
Bq        -0.9260215393    -5.0151468611    -1.5093809797
Bq        -1.0456068307    -5.0949938144    -1.2460868056
Bq        -0.8861597755    -4.9885312100    -1.5971457045
Bq        -1.0854685944    -5.1216094655    -1.1583220809
Bq        -0.8462980117    -4.9619155589    -1.6849104292
Bq        -1.1253303582    -5.1482251166    -1.0705573562
Bq        -0.8064362479    -4.9352999078    -1.7726751539
Bq        -1.1651921220    -5.1748407677    -0.9827926315
Bq        -0.7665744841    -4.9086842567    -1.8604398786
Bq        -0.9658833031    -5.0417625122    -1.4216162550
Bq        -1.0607774337    -4.5864132498    -1.2126852780
Bq        -0.9810539061    -4.5331819475    -1.3882147275
Bq        -1.1006391975    -4.6130289009    -1.1249205533
Bq        -0.9411921424    -4.5065662964    -1.4759794522
Bq        -1.1405009613    -4.6396445520    -1.0371558286
Bq        -0.9013303786    -4.4799506453    -1.5637441769
Bq        -1.1803627251    -4.6662602031    -0.9493911039
Bq        -0.8614686148    -4.4533349942    -1.6515089016
Bq        -1.2202244889    -4.6928758542    -0.8616263792
Bq        -0.8216068510    -4.4267193431    -1.7392736263
Bq        -1.0209156699    -4.5597975986    -1.3004500027
Bq        -1.1158098006    -4.1044483362    -1.0915190257
Bq        -1.0360862730    -4.0512170340    -1.2670484752
Bq        -1.1556715644    -4.1310639873    -1.0037543010
Bq        -0.9962245092    -4.0246013829    -1.3548131999
Bq        -1.1955333282    -4.1576796384    -0.9159895763
Bq        -0.9563627454    -3.9979857318    -1.4425779246
Bq        -1.2353950919    -4.1842952895    -0.8282248516
Bq        -0.9165009816    -3.9713700807    -1.5303426493
Bq        -1.2752568557    -4.2109109406    -0.7404601269
Bq        -0.8766392179    -3.9447544296    -1.6181073740
Bq        -1.0759480368    -4.0778326851    -1.1792837505
Bq        -1.1708421674    -3.6224834226    -0.9703527734
Bq        -1.0911186399    -3.5692521204    -1.1458822229
Bq        -1.2107039312    -3.6490990737    -0.8825880487
Bq        -1.0512568761    -3.5426364693    -1.2336469476
Bq        -1.2505656950    -3.6757147248    -0.7948233240
Bq        -1.0113951123    -3.5160208182    -1.3214116723
Bq        -1.2904274588    -3.7023303760    -0.7070585993
Bq        -0.9715333485    -3.4894051671    -1.4091763970
Bq        -1.3302892226    -3.7289460271    -0.6192938746
Bq        -0.9316715847    -3.4627895160    -1.4969411217
Bq        -1.1309804037    -3.5958677715    -1.0581174982
Bq        -1.2258745343    -3.1405185091    -0.8491865212
Bq        -1.1461510067    -3.0872872069    -1.0247159706
Bq        -1.2657362981    -3.1671341602    -0.7614217964
Bq        -1.1062892429    -3.0606715558    -1.1124806953
Bq        -1.3055980619    -3.1937498113    -0.6736570717
Bq        -1.0664274792    -3.0340559046    -1.2002454200
Bq        -1.3454598257    -3.2203654624    -0.5858923470
Bq        -1.0265657154    -3.0074402535    -1.2880101447
Bq        -1.3853215895    -3.2469811135    -0.4981276223
Bq        -0.9867039516    -2.9808246024    -1.3757748694
Bq        -1.1860127705    -3.1139028580    -0.9369512459
Bq        -1.2809069012    -2.6585535955    -0.7280202689
Bq        -1.2011833736    -2.6053222933    -0.9035497183
Bq        -1.3207686650    -2.6851692466    -0.6402555442
Bq        -1.1613216098    -2.5787066422    -0.9913144430
Bq        -1.3606304287    -2.7117848977    -0.5524908194
Bq        -1.1214598460    -2.5520909911    -1.0790791677
Bq        -1.4004921925    -2.7384005488    -0.4647260947
Bq        -1.0815980822    -2.5254753400    -1.1668438924
Bq        -1.4403539563    -2.7650161999    -0.3769613700
Bq        -1.0417363184    -2.4988596889    -1.2546086171
Bq        -1.2410451374    -2.6319379444    -0.8157849936
Bq        -1.3359392680    -2.1765886819    -0.6068540166
Bq        -1.2562157405    -2.1233573797    -0.7823834660
Bq        -1.3758010318    -2.2032043331    -0.5190892919
Bq        -1.2163539767    -2.0967417286    -0.8701481907
Bq        -1.4156627956    -2.2298199842    -0.4313245672
Bq        -1.1764922129    -2.0701260775    -0.9579129154
Bq        -1.4555245594    -2.2564356353    -0.3435598424
Bq        -1.1366304491    -2.0435104264    -1.0456776401
Bq        -1.4953863232    -2.2830512864    -0.2557951177
Bq        -1.0967686853    -2.0168947753    -1.1334423649
Bq        -1.2960775042    -2.1499730308    -0.6946187413
Bq        -1.3909716349    -1.6946237684    -0.4856877643
Bq        -1.3112481073    -1.6413924662    -0.6612172137
Bq        -1.4308333987    -1.7212394195    -0.3979230396
Bq        -1.2713863435    -1.6147768151    -0.7489819384
Bq        -1.4706951625    -1.7478550706    -0.3101583149
Bq        -1.2315245797    -1.5881611640    -0.8367466631
Bq        -1.5105569263    -1.7744707217    -0.2223935902
Bq        -1.1916628160    -1.5615455129    -0.9245113879
Bq        -1.5504186900    -1.8010863728    -0.1346288654
Bq        -1.1518010522    -1.5349298617    -1.0122761126
Bq        -1.3511098711    -1.6680081173    -0.5734524890
Bq        -1.4460040017    -1.2126588548    -0.3645215120
Bq        -1.3662804742    -1.1594275526    -0.5400509614
Bq        -1.4858657655    -1.2392745059    -0.2767567873
Bq        -1.3264187104    -1.1328119015    -0.6278156861
Bq        -1.5257275293    -1.2658901570    -0.1889920626
Bq        -1.2865569466    -1.1061962504    -0.7155804108
Bq        -1.5655892931    -1.2925058081    -0.1012273379
Bq        -1.2466951828    -1.0795805993    -0.8033451356
Bq        -1.6054510569    -1.3191214593    -0.0134626131
Bq        -1.2068334190    -1.0529649482    -0.8911098603
Bq        -1.4061422380    -1.1860432037    -0.4522862367
Bq        -1.5010363686    -0.7306939413    -0.2433552597
Bq        -1.4213128410    -0.6774626391    -0.4188847091
Bq        -1.5408981324    -0.7573095924    -0.1555905350
Bq        -1.3814510772    -0.6508469879    -0.5066494338
Bq        -1.5807598962    -0.7839252435    -0.0678258103
Bq        -1.3415893135    -0.6242313368    -0.5944141586
Bq        -1.6206216600    -0.8105408946     0.0199389144
Bq        -1.3017275497    -0.5976156857    -0.6821788833
Bq        -1.6604834238    -0.8371565457     0.1077036391
Bq        -1.2618657859    -0.5710000346    -0.7699436080
Bq        -1.4611746048    -0.7040782902    -0.3311199844
Bq        -1.5560687355    -0.2487290277    -0.1221890074
Bq        -1.4763452079    -0.1954977255    -0.2977184568
Bq        -1.5959304993    -0.2753446788    -0.0344242827
Bq        -1.4364834441    -0.1688820744    -0.3854831816
Bq        -1.6357922630    -0.3019603299     0.0533404420
Bq        -1.3966216803    -0.1422664233    -0.4732479063
Bq        -1.6756540268    -0.3285759810     0.1411051667
Bq        -1.3567599165    -0.1156507722    -0.5610126310
Bq        -1.7155157906    -0.3551916321     0.2288698914
Bq        -1.3168981527    -0.0890351211    -0.6487773557
Bq        -1.5162069717    -0.2221133766    -0.2099537321
Bq        -0.5505007003    -5.0683781633    -1.1270845922
Bq        -0.4707771727    -5.0151468611    -1.3026140416
Bq        -0.5903624641    -5.0949938144    -1.0393198675
Bq        -0.4309154089    -4.9885312100    -1.3903787663
Bq        -0.6302242279    -5.1216094655    -0.9515551428
Bq        -0.3910536451    -4.9619155589    -1.4781434910
Bq        -0.6700859917    -5.1482251166    -0.8637904180
Bq        -0.3511918814    -4.9352999078    -1.5659082157
Bq        -0.7099477554    -5.1748407677    -0.7760256933
Bq        -0.3113301176    -4.9086842567    -1.6536729405
Bq        -0.5106389365    -5.0417625122    -1.2148493169
Bq        -0.6055330672    -4.5864132498    -1.0059183399
Bq        -0.5258095396    -4.5331819475    -1.1814477893
Bq        -0.6453948309    -4.6130289009    -0.9181536152
Bq        -0.4859477758    -4.5065662964    -1.2692125140
Bq        -0.6852565947    -4.6396445520    -0.8303888905
Bq        -0.4460860120    -4.4799506453    -1.3569772387
Bq        -0.7251183585    -4.6662602031    -0.7426241657
Bq        -0.4062242482    -4.4533349942    -1.4447419635
Bq        -0.7649801223    -4.6928758542    -0.6548594410
Bq        -0.3663624844    -4.4267193431    -1.5325066882
Bq        -0.5656713034    -4.5597975986    -1.0936830646
Bq        -0.6605654340    -4.1044483362    -0.8847520876
Bq        -0.5808419064    -4.0512170340    -1.0602815370
Bq        -0.7004271978    -4.1310639873    -0.7969873629
Bq        -0.5409801427    -4.0246013829    -1.1480462617
Bq        -0.7402889616    -4.1576796384    -0.7092226382
Bq        -0.5011183789    -3.9979857318    -1.2358109864
Bq        -0.7801507254    -4.1842952895    -0.6214579135
Bq        -0.4612566151    -3.9713700807    -1.3235757112
Bq        -0.8200124892    -4.2109109406    -0.5336931887
Bq        -0.4213948513    -3.9447544296    -1.4113404359
Bq        -0.6207036702    -4.0778326851    -0.9725168123
Bq        -0.7155978009    -3.6224834226    -0.7635858353
Bq        -0.6358742733    -3.5692521204    -0.9391152847
Bq        -0.7554595647    -3.6490990737    -0.6758211106
Bq        -0.5960125095    -3.5426364693    -1.0268800094
Bq        -0.7953213285    -3.6757147248    -0.5880563859
Bq        -0.5561507457    -3.5160208182    -1.1146447342
Bq        -0.8351830922    -3.7023303760    -0.5002916612
Bq        -0.5162889819    -3.4894051671    -1.2024094589
Bq        -0.8750448560    -3.7289460271    -0.4125269365
Bq        -0.4764272182    -3.4627895160    -1.2901741836
Bq        -0.6757360371    -3.5958677715    -0.8513505600
Bq        -0.7706301677    -3.1405185091    -0.6424195830
Bq        -0.6909066402    -3.0872872069    -0.8179490324
Bq        -0.8104919315    -3.1671341602    -0.5546548583
Bq        -0.6510448764    -3.0606715558    -0.9057137572
Bq        -0.8503536953    -3.1937498113    -0.4668901336
Bq        -0.6111831126    -3.0340559046    -0.9934784819
Bq        -0.8902154591    -3.2203654624    -0.3791254089
Bq        -0.5713213488    -3.0074402535    -1.0812432066
Bq        -0.9300772229    -3.2469811135    -0.2913606842
Bq        -0.5314595850    -2.9808246024    -1.1690079313
Bq        -0.7307684040    -3.1139028580    -0.7301843077
Bq        -0.8256625346    -2.6585535955    -0.5212533307
Bq        -0.7459390070    -2.6053222933    -0.6967827802
Bq        -0.8655242984    -2.6851692466    -0.4334886060
Bq        -0.7060772432    -2.5787066422    -0.7845475049
Bq        -0.9053860622    -2.7117848977    -0.3457238813
Bq        -0.6662154794    -2.5520909911    -0.8723122296
Bq        -0.9452478260    -2.7384005488    -0.2579591566
Bq        -0.6263537157    -2.5254753400    -0.9600769543
Bq        -0.9851095897    -2.7650161999    -0.1701944319
Bq        -0.5864919519    -2.4988596889    -1.0478416790
Bq        -0.7858007708    -2.6319379444    -0.6090180554
Bq        -0.8806949015    -2.1765886819    -0.4000870784
Bq        -0.8009713739    -2.1233573797    -0.5756165279
Bq        -0.9205566652    -2.2032043331    -0.3123223537
Bq        -0.7611096101    -2.0967417286    -0.6633812526
Bq        -0.9604184290    -2.2298199842    -0.2245576290
Bq        -0.7212478463    -2.0701260775    -0.7511459773
Bq        -1.0002801928    -2.2564356353    -0.1367929043
Bq        -0.6813860825    -2.0435104264    -0.8389107020
Bq        -1.0401419566    -2.2830512864    -0.0490281796
Bq        -0.6415243187    -2.0168947753    -0.9266754267
Bq        -0.8408331377    -2.1499730308    -0.4878518031
Bq        -0.9357272683    -1.6946237684    -0.2789208261

1
2
3
4
5
6
7
8
9
10
11
12
13
14
15
16
17
18
19
20
21
22
23
24
25
26
27
28
29
30
31
32
33
34
35
36
37
38
39
40
41
42
43
44
45
46
47
48
49
50
51
52
53
54
55
56
57
58
59
60
61
62
63
64
65
66
67
68
69
70
71
72
73
74
75
76
77
78
79
80
81
82
83
84
85
86
87
88
89
90
91
92
93
94
95
96
97
98
99
100
101
102
103
104
105
106
107
108
109
110
111
112
113
114
115
116
117
118
119
120
121
122
123
124
125
126
127
128
129
130
131
132
133
134
135
136
137
138
139
140
141
142
143
144
145
146
147
148
149
150
151
152
153
154
155
156
157
158
159
160
161
162
163
164
165
166
167
168
169
170
171
172
173
174
175
176
177
178
179
180
181
182
183
184
185
186
187
188
189
190
191
192
193
194
195
196
197
198
199
200
201
202
203
204
205
206
207
208
209
210
211
212
213
214
215
216
217
218
219
220
221
222
223
224
225
226
227
228
229
230
231
232
233
234
235
236

