%nproc=8
%mem=1000MB
# rb3lyp/6-311+g** NMR geom=connectivity

Title

0 1
C    -4.0500558   -0.5771862    0.8136712
H    -5.0263804   -1.0082727    1.0024760
C    -3.9381552    0.6617804    0.2400876
H    -4.8252424    1.2338890   -0.0111295
C    -2.6768410    1.2433246    0.0057578
C    -1.4974121    0.5051527    0.2848253
C    -1.6508332   -0.7338728    0.9404026
H    -0.7713646   -1.2730967    1.2633753
C    -2.8898548   -1.2624035    1.1994307
H    -2.9683706   -2.2124563    1.7152676
C    -2.5773185    2.5963696   -0.4192930
H    -3.4870728    3.1412239   -0.6474055
C    -1.3741895    3.2147896   -0.4364030
H    -1.2997315    4.2742019   -0.6578144
C    -0.1719488    2.4994090   -0.1734588
C    -0.2043917    1.1018437    0.0192689
C     1.0513491    3.2042560   -0.0676222
H     1.0427344    4.2819499   -0.1896997
C     2.1942091    2.5487446    0.2579577
H     3.1168527    3.0912848    0.4334727
C     2.2216473    1.1336562    0.2934990
C     1.0486931    0.3945528    0.0302412
C     3.4483363    0.4614633    0.5573939
H     4.3095794    1.0606054    0.8334846
C     3.5427346   -0.8855926    0.4749463
H     4.4731467   -1.3939704    0.7038822
C     2.4490052   -1.6474447   -0.0196319
C     1.2150704   -1.0057258   -0.3013573
C     0.2531113   -1.7434440   -1.0216591
H    -0.6541356   -1.2535051   -1.3462847
C     0.4494193   -3.0628597   -1.3413779
H    -0.3083162   -3.5944309   -1.9054060
C     1.6251726   -3.7207967   -0.9552541
H     1.7670048   -4.7687404   -1.1927019
C     2.6109872   -3.0144177   -0.3183050
H     3.5525612   -3.4902813   -0.0646367
Bq         2.7653157147    -3.9447544296     0.0360281311
Bq         2.5660068957    -4.0778326851     0.4748517547
Bq         2.4711127651    -3.6224834226     0.6837827317
Bq         2.5508362927    -3.5692521204     0.5082532823
Bq         2.4312510013    -3.6490990737     0.7715474564
Bq         2.5906980565    -3.5426364693     0.4204885575
Bq         2.3913892375    -3.6757147248     0.8593121811
Bq         2.6305598202    -3.5160208182     0.3327238328
Bq         2.3515274737    -3.7023303760     0.9470769058
Bq         2.6704215840    -3.4894051671     0.2449591081
Bq         2.3116657099    -3.7289460271     1.0348416305
Bq         2.7102833478    -3.4627895160     0.1571943834
Bq         2.5109745289    -3.5958677715     0.5960180070
Bq         2.4160803982    -3.1405185091     0.8049489840
Bq         2.4958039258    -3.0872872069     0.6294195345
Bq         2.3762186344    -3.1671341602     0.8927137087
Bq         2.5356656896    -3.0606715558     0.5416548098
Bq         2.3363568707    -3.1937498113     0.9804784334
Bq         2.5755274534    -3.0340559046     0.4538900851
Bq         2.2964951069    -3.2203654624     1.0682431581
Bq         2.6153892172    -3.0074402535     0.3661253604
Bq         2.2566333431    -3.2469811135     1.1560078828
Bq         2.6552509810    -2.9808246024     0.2783606357
Bq         2.4559421620    -3.1139028580     0.7171842593
Bq         2.3610480314    -2.6585535955     0.9261152363
Bq         2.4407715589    -2.6053222933     0.7505857868
Bq         2.3211862676    -2.6851692466     1.0138799610
Bq         2.4806333227    -2.5787066422     0.6628210621
Bq         2.2813245038    -2.7117848977     1.1016446857
Bq         2.5204950865    -2.5520909911     0.5750563374
Bq         2.2414627400    -2.7384005488     1.1894094104
Bq         2.5603568503    -2.5254753400     0.4872916127
Bq         2.2016009762    -2.7650161999     1.2771741351
Bq         2.6002186141    -2.4988596889     0.3995268880
Bq         2.4009097952    -2.6319379444     0.8383505116
Bq         2.3060156645    -2.1765886819     1.0472814886
Bq         2.3857391921    -2.1233573797     0.8717520391
Bq         2.2661539007    -2.2032043331     1.1350462133
Bq         2.4256009559    -2.0967417286     0.7839873144
Bq         2.2262921369    -2.2298199842     1.2228109380
Bq         2.4654627197    -2.0701260775     0.6962225897
Bq         2.1864303732    -2.2564356353     1.3105756627
Bq         2.5053244835    -2.0435104264     0.6084578650
Bq         2.1465686094    -2.2830512864     1.3983403874
Bq         2.5451862472    -2.0168947753     0.5206931403
Bq         2.3458774283    -2.1499730308     0.9595167638
Bq         2.2509832977    -1.6946237684     1.1684477408
Bq         2.3307068252    -1.6413924662     0.9929182914
Bq         2.2111215339    -1.7212394195     1.2562124656
Bq         2.3705685890    -1.6147768151     0.9051535667
Bq         2.1712597701    -1.7478550706     1.3439771903
Bq         2.4104303528    -1.5881611640     0.8173888420
Bq         2.1313980063    -1.7744707217     1.4317419150
Bq         2.4502921166    -1.5615455129     0.7296241173
Bq         2.0915362425    -1.8010863728     1.5195066397
Bq         2.4901538804    -1.5349298617     0.6418593926
Bq         2.2908450614    -1.6680081173     1.0806830161
Bq         2.1959509308    -1.2126588548     1.2896139931
Bq         2.2756744584    -1.1594275526     1.1140845437
Bq         2.1560891670    -1.2392745059     1.3773787178
Bq         2.3155362222    -1.1328119015     1.0263198190
Bq         2.1162274032    -1.2658901570     1.4651434426
Bq         2.3553979859    -1.1061962504     0.9385550943
Bq         2.0763656394    -1.2925058081     1.5529081673
Bq         2.3952597497    -1.0795805993     0.8507903696
Bq         2.0365038756    -1.3191214593     1.6406728920
Bq         2.4351215135    -1.0529649482     0.7630256449
Bq         2.2358126946    -1.1860432037     1.2018492684
Bq         2.1409185639    -0.7306939413     1.4107802454
Bq         2.2206420915    -0.6774626391     1.2352507960
Bq         2.1010568001    -0.7573095924     1.4985449701
Bq         2.2605038553    -0.6508469879     1.1474860713
Bq         2.0611950364    -0.7839252435     1.5863096949
Bq         2.3003656191    -0.6242313368     1.0597213466
Bq         2.0213332726    -0.8105408946     1.6740744196
Bq         2.3402273829    -0.5976156857     0.9719566219
Bq         1.9814715088    -0.8371565457     1.7618391443
Bq         2.3800891467    -0.5710000346     0.8841918971
Bq         2.1807803277    -0.7040782902     1.3230155207
Bq         2.0858861971    -0.2487290277     1.5319464977
Bq         2.1656097246    -0.1954977255     1.3564170483
Bq         2.0460244333    -0.2753446788     1.6197112224
Bq         2.2054714884    -0.1688820744     1.2686523236
Bq         2.0061626695    -0.3019603299     1.7074759471
Bq         2.2453332522    -0.1422664233     1.1808875989
Bq         1.9663009057    -0.3285759810     1.7952406719
Bq         2.2851950160    -0.1156507722     1.0931228742
Bq         1.9264391419    -0.3551916321     1.8830053966
Bq         2.3250567798    -0.0890351211     1.0053581494
Bq         2.1257479609    -0.2221133766     1.4441817730
Bq         3.0914542322    -5.0683781633     0.5270509130
Bq         3.1711777598    -5.0151468611     0.3515214635
Bq         3.0515924685    -5.0949938144     0.6148156377
Bq         3.2110395236    -4.9885312100     0.2637567388
Bq         3.0117307047    -5.1216094655     0.7025803624
Bq         3.2509012874    -4.9619155589     0.1759920141
Bq         2.9718689409    -5.1482251166     0.7903450871
Bq         3.2907630512    -4.9352999078     0.0882272894
Bq         2.9320071771    -5.1748407677     0.8781098118
Bq         3.3306248150    -4.9086842567     0.0004625647
Bq         3.1313159960    -5.0417625122     0.4392861882
Bq         3.0364218654    -4.5864132498     0.6482171652
Bq         3.1161453930    -4.5331819475     0.4726877158
Bq         2.9965601016    -4.6130289009     0.7359818900
Bq         3.1560071567    -4.5065662964     0.3849229911
Bq         2.9566983378    -4.6396445520     0.8237466147
Bq         3.1958689205    -4.4799506453     0.2971582664
Bq         2.9168365740    -4.6662602031     0.9115113394
Bq         3.2357306843    -4.4533349942     0.2093935417
Bq         2.8769748102    -4.6928758542     0.9992760641
Bq         3.2755924481    -4.4267193431     0.1216288170
Bq         3.0762836292    -4.5597975986     0.5604524405
Bq         2.9813894985    -4.1044483362     0.7693834175
Bq         3.0611130261    -4.0512170340     0.5938539681
Bq         2.9415277347    -4.1310639873     0.8571481422
Bq         3.1009747899    -4.0246013829     0.5060892434
Bq         2.9016659709    -4.1576796384     0.9449128670
Bq         3.1408365537    -3.9979857318     0.4183245187
Bq         2.8618042072    -4.1842952895     1.0326775917
Bq         3.1806983175    -3.9713700807     0.3305597940
Bq         2.8219424434    -4.2109109406     1.1204423164
Bq         3.2205600812    -3.9447544296     0.2427950693
Bq         3.0212512623    -4.0778326851     0.6816186928
Bq         2.9263571317    -3.6224834226     0.8905496698
Bq         3.0060806592    -3.5692521204     0.7150202204
Bq         2.8864953679    -3.6490990737     0.9783143945
Bq         3.0459424230    -3.5426364693     0.6272554957
Bq         2.8466336041    -3.6757147248     1.0660791193
Bq         3.0858041868    -3.5160208182     0.5394907710
Bq         2.8067718403    -3.7023303760     1.1538438440
Bq         3.1256659506    -3.4894051671     0.4517260463
Bq         2.7669100765    -3.7289460271     1.2416085687
Bq         3.1655277144    -3.4627895160     0.3639613216
Bq         2.9662188954    -3.5958677715     0.8027849451
Bq         2.8713247648    -3.1405185091     1.0117159221
Bq         2.9510482924    -3.0872872069     0.8361864727
Bq         2.8314630010    -3.1671341602     1.0994806468
Bq         2.9909100562    -3.0606715558     0.7484217480
Bq         2.7916012372    -3.1937498113     1.1872453715
Bq         3.0307718200    -3.0340559046     0.6606570233
Bq         2.7517394734    -3.2203654624     1.2750100963
Bq         3.0706335837    -3.0074402535     0.5728922986
Bq         2.7118777097    -3.2469811135     1.3627748210
Bq         3.1104953475    -2.9808246024     0.4851275738
Bq         2.9111865286    -3.1139028580     0.9239511974
Bq         2.8162923979    -2.6585535955     1.1328821744
Bq         2.8960159255    -2.6053222933     0.9573527250
Bq         2.7764306342    -2.6851692466     1.2206468991
Bq         2.9358776893    -2.5787066422     0.8695880003
Bq         2.7365688704    -2.7117848977     1.3084116238
Bq         2.9757394531    -2.5520909911     0.7818232756
Bq         2.6967071066    -2.7384005488     1.3961763485
Bq         3.0156012169    -2.5254753400     0.6940585508
Bq         2.6568453428    -2.7650161999     1.4839410733
Bq         3.0554629807    -2.4988596889     0.6062938261
Bq         2.8561541617    -2.6319379444     1.0451174497
Bq         2.7612600311    -2.1765886819     1.2540484267
Bq         2.8409835587    -2.1233573797     1.0785189773
Bq         2.7213982673    -2.2032043331     1.3418131514
Bq         2.8808453224    -2.0967417286     0.9907542526
Bq         2.6815365035    -2.2298199842     1.4295778761
Bq         2.9207070862    -2.0701260775     0.9029895278
Bq         2.6416747397    -2.2564356353     1.5173426008
Bq         2.9605688500    -2.0435104264     0.8152248031
Bq         2.6018129759    -2.2830512864     1.6051073255
Bq         3.0004306138    -2.0168947753     0.7274600784
Bq         2.8011217949    -2.1499730308     1.1662837020
Bq         2.7062276642    -1.6946237684     1.3752146790
Bq         2.7859511918    -1.6413924662     1.1996852296
Bq         2.6663659004    -1.7212394195     1.4629794037
Bq         2.8258129556    -1.6147768151     1.1119205048
Bq         2.6265041366    -1.7478550706     1.5507441284
Bq         2.8656747194    -1.5881611640     1.0241557801
Bq         2.5866423729    -1.7744707217     1.6385088531
Bq         2.9055364832    -1.5615455129     0.9363910554
Bq         2.5467806091    -1.8010863728     1.7262735778
Bq         2.9453982469    -1.5349298617     0.8486263307
Bq         2.7460894280    -1.6680081173     1.2874499543
Bq         2.6511952974    -1.2126588548     1.4963809313
Bq         2.7309188249    -1.1594275526     1.3208514819
Bq         2.6113335336    -1.2392745059     1.5841456560
Bq         2.7707805887    -1.1328119015     1.2330867571
Bq         2.5714717698    -1.2658901570     1.6719103807
Bq         2.8106423525    -1.1061962504     1.1453220324
Bq         2.5316100060    -1.2925058081     1.7596751054
Bq         2.8505041163    -1.0795805993     1.0575573077
Bq         2.4917482422    -1.3191214593     1.8474398301
Bq         2.8903658801    -1.0529649482     0.9697925830
Bq         2.6910570611    -1.1860432037     1.4086162066
Bq         2.5961629305    -0.7306939413     1.6175471836
Bq         2.6758864581    -0.6774626391     1.4420177341
Bq         2.5563011667    -0.7573095924     1.7053119083
Bq         2.7157482219    -0.6508469879     1.3542530094
Bq         2.5164394029    -0.7839252435     1.7930766330
Bq         2.7556099856    -0.6242313368     1.2664882847
Bq         2.4765776391    -0.8105408946     1.8808413577
Bq         2.7954717494    -0.5976156857     1.1787235600
Bq         2.4367158753    -0.8371565457     1.9686060824
Bq         2.8353335132    -0.5710000346     1.0909588353
Bq         2.6360246943    -0.7040782902     1.5297824589

1
2
3
4
5
6
7
8
9
10
11
12
13
14
15
16
17
18
19
20
21
22
23
24
25
26
27
28
29
30
31
32
33
34
35
36
37
38
39
40
41
42
43
44
45
46
47
48
49
50
51
52
53
54
55
56
57
58
59
60
61
62
63
64
65
66
67
68
69
70
71
72
73
74
75
76
77
78
79
80
81
82
83
84
85
86
87
88
89
90
91
92
93
94
95
96
97
98
99
100
101
102
103
104
105
106
107
108
109
110
111
112
113
114
115
116
117
118
119
120
121
122
123
124
125
126
127
128
129
130
131
132
133
134
135
136
137
138
139
140
141
142
143
144
145
146
147
148
149
150
151
152
153
154
155
156
157
158
159
160
161
162
163
164
165
166
167
168
169
170
171
172
173
174
175
176
177
178
179
180
181
182
183
184
185
186
187
188
189
190
191
192
193
194
195
196
197
198
199
200
201
202
203
204
205
206
207
208
209
210
211
212
213
214
215
216
217
218
219
220
221
222
223
224
225
226
227
228
229
230
231
232
233
234
235
236

