%nproc=8
%mem=1000MB
# rb3lyp/6-311+g** NMR geom=connectivity

Title

0 1
C    -4.0500558   -0.5771862    0.8136712
H    -5.0263804   -1.0082727    1.0024760
C    -3.9381552    0.6617804    0.2400876
H    -4.8252424    1.2338890   -0.0111295
C    -2.6768410    1.2433246    0.0057578
C    -1.4974121    0.5051527    0.2848253
C    -1.6508332   -0.7338728    0.9404026
H    -0.7713646   -1.2730967    1.2633753
C    -2.8898548   -1.2624035    1.1994307
H    -2.9683706   -2.2124563    1.7152676
C    -2.5773185    2.5963696   -0.4192930
H    -3.4870728    3.1412239   -0.6474055
C    -1.3741895    3.2147896   -0.4364030
H    -1.2997315    4.2742019   -0.6578144
C    -0.1719488    2.4994090   -0.1734588
C    -0.2043917    1.1018437    0.0192689
C     1.0513491    3.2042560   -0.0676222
H     1.0427344    4.2819499   -0.1896997
C     2.1942091    2.5487446    0.2579577
H     3.1168527    3.0912848    0.4334727
C     2.2216473    1.1336562    0.2934990
C     1.0486931    0.3945528    0.0302412
C     3.4483363    0.4614633    0.5573939
H     4.3095794    1.0606054    0.8334846
C     3.5427346   -0.8855926    0.4749463
H     4.4731467   -1.3939704    0.7038822
C     2.4490052   -1.6474447   -0.0196319
C     1.2150704   -1.0057258   -0.3013573
C     0.2531113   -1.7434440   -1.0216591
H    -0.6541356   -1.2535051   -1.3462847
C     0.4494193   -3.0628597   -1.3413779
H    -0.3083162   -3.5944309   -1.9054060
C     1.6251726   -3.7207967   -0.9552541
H     1.7670048   -4.7687404   -1.1927019
C     2.6109872   -3.0144177   -0.3183050
H     3.5525612   -3.4902813   -0.0646367
Bq        -3.2820594822     2.5284630358     0.1220256993
Bq        -3.2845374512     2.8328420548     0.7523805775
Bq        -3.2817054866     2.4849803188     0.0319750024
Bq        -3.2848914468     2.8763247718     0.8424312744
Bq        -3.2813514911     2.4414976018    -0.0580756944
Bq        -3.2831214689     2.6589111868     0.3921777900
Bq        -2.7920259415    -1.8001757297     2.6583130582
Bq        -2.7913179504    -1.8871411637     2.4782116644
Bq        -2.7923799371    -1.7566930127     2.7483637551
Bq        -2.7909639548    -1.9306238807     2.3881609675
Bq        -2.7927339327    -1.7132102957     2.8384144520
Bq        -2.7906099592    -1.9741065977     2.2981102707
Bq        -2.7930879282    -1.6697275787     2.9284651488
Bq        -2.7902559636    -2.0175893147     2.2080595738
Bq        -2.7934419238    -1.6262448617     3.0185158457
Bq        -2.7899019681    -2.0610720317     2.1180088769
Bq        -2.7916719459    -1.8436584467     2.5682623613
Bq        -2.7911712801    -1.3499187664     2.4409011530
Bq        -2.7904632890    -1.4368842004     2.2607997593
Bq        -2.7915252757    -1.3064360494     2.5309518499
Bq        -2.7901092934    -1.4803669174     2.1707490624
Bq        -2.7918792713    -1.2629533324     2.6210025468
Bq        -2.7897552979    -1.5238496344     2.0806983655
Bq        -2.7922332669    -1.2194706153     2.7110532437
Bq        -2.7894013023    -1.5673323514     1.9906476686
Bq        -2.7925872624    -1.1759878983     2.8011039406
Bq        -2.7890473067    -1.6108150684     1.9005969717
Bq        -2.7908172846    -1.3934014834     2.3508504561
Bq        -2.7903166188    -0.8996618030     2.2234892479
Bq        -2.7896086276    -0.9866272370     2.0433878541
Bq        -2.7906706143    -0.8561790860     2.3135399447
Bq        -2.7892546321    -1.0301099540     1.9533371572
Bq        -2.7910246099    -0.8126963690     2.4035906416
Bq        -2.7889006365    -1.0735926710     1.8632864603
Bq        -2.7913786055    -0.7692136520     2.4936413385
Bq        -2.7885466409    -1.1170753880     1.7732357634
Bq        -2.7917326011    -0.7257309350     2.5836920354
Bq        -2.7881926453    -1.1605581050     1.6831850666
Bq        -2.7899626232    -0.9431445200     2.1334385510
Bq        -2.7894619574    -0.4494048397     2.0060773427
Bq        -2.7887539663    -0.5363702737     1.8259759489
Bq        -2.7898159530    -0.4059221227     2.0961280396
Bq        -2.7883999707    -0.5798529907     1.7359252521
Bq        -2.7901699486    -0.3624394056     2.1861787365
Bq        -2.7880459751    -0.6233357077     1.6458745552
Bq        -2.7905239441    -0.3189566886     2.2762294333
Bq        -2.7876919795    -0.6668184247     1.5558238583
Bq        -2.7908779397    -0.2754739716     2.3662801302
Bq        -2.7873379840    -0.7103011417     1.4657731614
Bq        -2.7891079618    -0.4928875567     1.9160266458
Bq        -2.7886072960     0.0008521237     1.7886654375
Bq        -2.7878993049    -0.0861133103     1.6085640438
Bq        -2.7889612916     0.0443348407     1.8787161344
Bq        -2.7875453093    -0.1295960273     1.5185133469
Bq        -2.7893152872     0.0878175577     1.9687668313
Bq        -2.7871913137    -0.1730787443     1.4284626500
Bq        -2.7896692828     0.1313002747     2.0588175282
Bq        -2.7868373182    -0.2165614613     1.3384119531
Bq        -2.7900232783     0.1747829917     2.1488682251
Bq        -2.7864833226    -0.2600441783     1.2483612562
Bq        -2.7882533005    -0.0426305933     1.6986147407
Bq        -2.7877526347     0.4511090870     1.5712535324
Bq        -2.7870446435     0.3641436530     1.3911521386
Bq        -2.7881066302     0.4945918041     1.6613042293
Bq        -2.7866906479     0.3206609360     1.3011014417
Bq        -2.7884606258     0.5380745211     1.7513549261
Bq        -2.7863366524     0.2771782190     1.2110507448
Bq        -2.7888146214     0.5815572381     1.8414056230
Bq        -2.7859826568     0.2336955020     1.1210000480
Bq        -2.7891686170     0.6250399551     1.9314563199
Bq        -2.7856286612     0.1902127850     1.0309493511
Bq        -2.7873986391     0.4076263700     1.4812028355
Bq        -2.7868979733     0.9013660504     1.3538416272
Bq        -2.7861899821     0.8144006164     1.1737402334
Bq        -2.7872519689     0.9448487674     1.4438923241
Bq        -2.7858359866     0.7709178994     1.0836895366
Bq        -2.7876059644     0.9883314844     1.5339430210
Bq        -2.7854819910     0.7274351824     0.9936388397
Bq        -2.7879599600     1.0318142014     1.6239937179
Bq        -2.7851279954     0.6839524654     0.9035881428
Bq        -2.7883139556     1.0752969184     1.7140444147
Bq        -2.7847739998     0.6404697484     0.8135374459
Bq        -2.7865439777     0.8578833334     1.2637909303
Bq        -2.7860433119     1.3516230138     1.1364297221
Bq        -2.7853353208     1.2646575797     0.9563283283
Bq        -2.7863973075     1.3951057308     1.2264804189
Bq        -2.7849813252     1.2211748627     0.8662776314
Bq        -2.7867513031     1.4385884478     1.3165311158
Bq        -2.7846273296     1.1776921457     0.7762269345
Bq        -2.7871052986     1.4820711648     1.4065818127
Bq        -2.7842733340     1.1342094287     0.6861762376
Bq        -2.7874592942     1.5255538818     1.4966325096
Bq        -2.7839193385     1.0907267117     0.5961255408
Bq        -2.7856893163     1.3081402968     1.0463790252
Bq        -2.7851886505     1.8018799771     0.9190178169
Bq        -2.7844806594     1.7149145431     0.7389164231
Bq        -2.7855426461     1.8453626941     1.0090685138
Bq        -2.7841266638     1.6714318261     0.6488657262
Bq        -2.7858966417     1.8888454111     1.0991192107
Bq        -2.7837726682     1.6279491091     0.5588150294
Bq        -2.7862506373     1.9323281281     1.1891699075
Bq        -2.7834186727     1.5844663921     0.4687643325
Bq        -2.7866046328     1.9758108451     1.2792206044
Bq        -2.7830646771     1.5409836751     0.3787136356
Bq        -2.7848346550     1.7583972601     0.8289671200
Bq        -2.7843339892     2.2521369405     0.7016059117
Bq        -2.7836259980     2.1651715065     0.5215045180
Bq        -2.7846879847     2.2956196575     0.7916566086
Bq        -2.7832720024     2.1216887894     0.4314538211
Bq        -2.7850419803     2.3391023745     0.8817073055
Bq        -2.7829180069     2.0782060724     0.3414031242
Bq        -2.7853959759     2.3825850915     0.9717580024
Bq        -2.7825640113     2.0347233554     0.2513524273
Bq        -2.7857499715     2.4260678085     1.0618086993
Bq        -2.7822100157     1.9912406384     0.1613017304
Bq        -2.7839799936     2.2086542235     0.6115552148
Bq        -2.7834793278     2.7023939038     0.4841940066
Bq        -2.7827713366     2.6154284698     0.3040926128
Bq        -2.7838333234     2.7458766208     0.5742447034
Bq        -2.7824173411     2.5719457528     0.2140419159
Bq        -2.7841873189     2.7893593378     0.6642954003
Bq        -2.7820633455     2.5284630358     0.1239912190
Bq        -2.7845413145     2.8328420548     0.7543460972
Bq        -2.7817093499     2.4849803188     0.0339405222
Bq        -2.7848953101     2.8763247718     0.8443967941
Bq        -2.7813553543     2.4414976018    -0.0561101747
Bq        -2.7831253322     2.6589111868     0.3941433097
Bq        -2.2920298048    -1.8001757297     2.6602785779
Bq        -2.2913218137    -1.8871411637     2.4801771841
Bq        -2.2923838004    -1.7566930127     2.7503292748
Bq        -2.2909678181    -1.9306238807     2.3901264872
Bq        -2.2927377960    -1.7132102957     2.8403799717
Bq        -2.2906138225    -1.9741065977     2.3000757904
Bq        -2.2930917915    -1.6697275787     2.9304306685
Bq        -2.2902598269    -2.0175893147     2.2100250935
Bq        -2.2934457871    -1.6262448617     3.0204813654
Bq        -2.2899058314    -2.0610720317     2.1199743966
Bq        -2.2916758092    -1.8436584467     2.5702278810
Bq        -2.2911751434    -1.3499187664     2.4428666727
Bq        -2.2904671523    -1.4368842004     2.2627652790
Bq        -2.2915291390    -1.3064360494     2.5329173696
Bq        -2.2901131567    -1.4803669174     2.1727145821
Bq        -2.2918831346    -1.2629533324     2.6229680665
Bq        -2.2897591611    -1.5238496344     2.0826638852
Bq        -2.2922371302    -1.2194706153     2.7130187634
Bq        -2.2894051656    -1.5673323514     1.9926131883
Bq        -2.2925911257    -1.1759878983     2.8030694603
Bq        -2.2890511700    -1.6108150684     1.9025624914
Bq        -2.2908211479    -1.3934014834     2.3528159759
Bq        -2.2903204821    -0.8996618030     2.2254547676
Bq        -2.2896124909    -0.9866272370     2.0453533738
Bq        -2.2906744776    -0.8561790860     2.3155054645
Bq        -2.2892584953    -1.0301099540     1.9553026769
Bq        -2.2910284732    -0.8126963690     2.4055561613
Bq        -2.2889044998    -1.0735926710     1.8652519800
Bq        -2.2913824688    -0.7692136520     2.4956068582
Bq        -2.2885505042    -1.1170753880     1.7752012832
Bq        -2.2917364644    -0.7257309350     2.5856575551
Bq        -2.2881965086    -1.1605581050     1.6851505863
Bq        -2.2899664865    -0.9431445200     2.1354040707
Bq        -2.2894658207    -0.4494048397     2.0080428624
Bq        -2.2887578295    -0.5363702737     1.8279414686
Bq        -2.2898198163    -0.4059221227     2.0980935593
Bq        -2.2884038340    -0.5798529907     1.7378907718
Bq        -2.2901738118    -0.3624394056     2.1881442562
Bq        -2.2880498384    -0.6233357077     1.6478400749
Bq        -2.2905278074    -0.3189566886     2.2781949531
Bq        -2.2876958428    -0.6668184247     1.5577893780
Bq        -2.2908818030    -0.2754739716     2.3682456499
Bq        -2.2873418472    -0.7103011417     1.4677386811
Bq        -2.2891118251    -0.4928875567     1.9179921655
Bq        -2.2886111593     0.0008521237     1.7906309572
Bq        -2.2879031682    -0.0861133103     1.6105295635
Bq        -2.2889651549     0.0443348407     1.8806816541
Bq        -2.2875491726    -0.1295960273     1.5204788666
Bq        -2.2893191505     0.0878175577     1.9707323510
Bq        -2.2871951770    -0.1730787443     1.4304281697
Bq        -2.2896731460     0.1313002747     2.0607830479
Bq        -2.2868411814    -0.2165614613     1.3403774728
Bq        -2.2900271416     0.1747829917     2.1508337448
Bq        -2.2864871859    -0.2600441783     1.2503267760
Bq        -2.2882571637    -0.0426305933     1.7005802604
Bq        -2.2877564979     0.4511090870     1.5732190521
Bq        -2.2870485068     0.3641436530     1.3931176583
Bq        -2.2881104935     0.4945918041     1.6632697490
Bq        -2.2866945112     0.3206609360     1.3030669614
Bq        -2.2884644891     0.5380745211     1.7533204459
Bq        -2.2863405156     0.2771782190     1.2130162646
Bq        -2.2888184847     0.5815572381     1.8433711427
Bq        -2.2859865201     0.2336955020     1.1229655677
Bq        -2.2891724802     0.6250399551     1.9334218396
Bq        -2.2856325245     0.1902127850     1.0329148708
Bq        -2.2874025024     0.4076263700     1.4831683552
Bq        -2.2869018366     0.9013660504     1.3558071469
Bq        -2.2861938454     0.8144006164     1.1757057532
Bq        -2.2872558321     0.9448487674     1.4458578438
Bq        -2.2858398498     0.7709178994     1.0856550563
Bq        -2.2876098277     0.9883314844     1.5359085407
Bq        -2.2854858543     0.7274351824     0.9956043594
Bq        -2.2879638233     1.0318142014     1.6259592376

1
2
3
4
5
6
7
8
9
10
11
12
13
14
15
16
17
18
19
20
21
22
23
24
25
26
27
28
29
30
31
32
33
34
35
36
37
38
39
40
41
42
43
44
45
46
47
48
49
50
51
52
53
54
55
56
57
58
59
60
61
62
63
64
65
66
67
68
69
70
71
72
73
74
75
76
77
78
79
80
81
82
83
84
85
86
87
88
89
90
91
92
93
94
95
96
97
98
99
100
101
102
103
104
105
106
107
108
109
110
111
112
113
114
115
116
117
118
119
120
121
122
123
124
125
126
127
128
129
130
131
132
133
134
135
136
137
138
139
140
141
142
143
144
145
146
147
148
149
150
151
152
153
154
155
156
157
158
159
160
161
162
163
164
165
166
167
168
169
170
171
172
173
174
175
176
177
178
179
180
181
182
183
184
185
186
187
188
189
190
191
192
193
194
195
196
197
198
199
200
201
202
203
204
205
206
207
208
209
210
211
212
213
214
215
216
217
218
219
220
221
222
223
224
225
226
227
228
229
230
231
232
233
234
235
236

