%nproc=8
%mem=1000MB
# rb3lyp/6-311+g** NMR geom=connectivity

Title

0 1
C    -4.0500558   -0.5771862    0.8136712
H    -5.0263804   -1.0082727    1.0024760
C    -3.9381552    0.6617804    0.2400876
H    -4.8252424    1.2338890   -0.0111295
C    -2.6768410    1.2433246    0.0057578
C    -1.4974121    0.5051527    0.2848253
C    -1.6508332   -0.7338728    0.9404026
H    -0.7713646   -1.2730967    1.2633753
C    -2.8898548   -1.2624035    1.1994307
H    -2.9683706   -2.2124563    1.7152676
C    -2.5773185    2.5963696   -0.4192930
H    -3.4870728    3.1412239   -0.6474055
C    -1.3741895    3.2147896   -0.4364030
H    -1.2997315    4.2742019   -0.6578144
C    -0.1719488    2.4994090   -0.1734588
C    -0.2043917    1.1018437    0.0192689
C     1.0513491    3.2042560   -0.0676222
H     1.0427344    4.2819499   -0.1896997
C     2.1942091    2.5487446    0.2579577
H     3.1168527    3.0912848    0.4334727
C     2.2216473    1.1336562    0.2934990
C     1.0486931    0.3945528    0.0302412
C     3.4483363    0.4614633    0.5573939
H     4.3095794    1.0606054    0.8334846
C     3.5427346   -0.8855926    0.4749463
H     4.4731467   -1.3939704    0.7038822
C     2.4490052   -1.6474447   -0.0196319
C     1.2150704   -1.0057258   -0.3013573
C     0.2531113   -1.7434440   -1.0216591
H    -0.6541356   -1.2535051   -1.3462847
C     0.4494193   -3.0628597   -1.3413779
H    -0.3083162   -3.5944309   -1.9054060
C     1.6251726   -3.7207967   -0.9552541
H     1.7670048   -4.7687404   -1.1927019
C     2.6109872   -3.0144177   -0.3183050
H     3.5525612   -3.4902813   -0.0646367
Bq         0.4243557860    -0.1422664233     0.3538198463
Bq         0.1453234394    -0.3285759810     0.9681729193
Bq         0.4642175497    -0.1156507722     0.2660551216
Bq         0.1054616757    -0.3551916321     1.0559376440
Bq         0.5040793135    -0.0890351211     0.1782903969
Bq         0.3047704946    -0.2221133766     0.6171140204
Bq         1.2704767660    -5.0683781633    -0.3000168396
Bq         1.3502002935    -5.0151468611    -0.4755462890
Bq         1.2306150022    -5.0949938144    -0.2122521149
Bq         1.3900620573    -4.9885312100    -0.5633110137
Bq         1.1907532384    -5.1216094655    -0.1244873902
Bq         1.4299238211    -4.9619155589    -0.6510757385
Bq         1.1508914746    -5.1482251166    -0.0367226655
Bq         1.4697855849    -4.9352999078    -0.7388404632
Bq         1.1110297108    -5.1748407677     0.0510420592
Bq         1.5096473487    -4.9086842567    -0.8266051879
Bq         1.3103385298    -5.0417625122    -0.3877815643
Bq         1.2154443991    -4.5864132498    -0.1788505873
Bq         1.2951679267    -4.5331819475    -0.3543800367
Bq         1.1755826353    -4.6130289009    -0.0910858626
Bq         1.3350296905    -4.5065662964    -0.4421447615
Bq         1.1357208715    -4.6396445520    -0.0033211379
Bq         1.3748914543    -4.4799506453    -0.5299094862
Bq         1.0958591078    -4.6662602031     0.0844435868
Bq         1.4147532181    -4.4533349942    -0.6176742109
Bq         1.0559973440    -4.6928758542     0.1722083115
Bq         1.4546149818    -4.4267193431    -0.7054389356
Bq         1.2553061629    -4.5597975986    -0.2666153120
Bq         1.1604120323    -4.1044483362    -0.0576843350
Bq         1.2401355598    -4.0512170340    -0.2332137845
Bq         1.1205502685    -4.1310639873     0.0300803897
Bq         1.2799973236    -4.0246013829    -0.3209785092
Bq         1.0806885047    -4.1576796384     0.1178451144
Bq         1.3198590874    -3.9979857318    -0.4087432339
Bq         1.0408267409    -4.1842952895     0.2056098391
Bq         1.3597208512    -3.9713700807    -0.4965079586
Bq         1.0009649771    -4.2109109406     0.2933745638
Bq         1.3995826150    -3.9447544296    -0.5842726833
Bq         1.2002737960    -4.0778326851    -0.1454490597
Bq         1.1053796654    -3.6224834226     0.0634819173
Bq         1.1851031930    -3.5692521204    -0.1120475322
Bq         1.0655179016    -3.6490990737     0.1512466420
Bq         1.2249649568    -3.5426364693    -0.1998122569
Bq         1.0256561378    -3.6757147248     0.2390113667
Bq         1.2648267205    -3.5160208182    -0.2875769816
Bq         0.9857943740    -3.7023303760     0.3267760914
Bq         1.3046884843    -3.4894051671    -0.3753417063
Bq         0.9459326102    -3.7289460271     0.4145408161
Bq         1.3445502481    -3.4627895160    -0.4631064310
Bq         1.1452414292    -3.5958677715    -0.0242828075
Bq         1.0503472985    -3.1405185091     0.1846481695
Bq         1.1300708261    -3.0872872069     0.0091187201
Bq         1.0104855347    -3.1671341602     0.2724128943
Bq         1.1699325899    -3.0606715558    -0.0786460046
Bq         0.9706237710    -3.1937498113     0.3601776190
Bq         1.2097943537    -3.0340559046    -0.1664107293
Bq         0.9307620072    -3.2203654624     0.4479423437
Bq         1.2496561175    -3.0074402535    -0.2541754540
Bq         0.8909002434    -3.2469811135     0.5357070684
Bq         1.2895178813    -2.9808246024    -0.3419401787
Bq         1.0902090623    -3.1139028580     0.0968834448
Bq         0.9953149317    -2.6585535955     0.3058144218
Bq         1.0750384592    -2.6053222933     0.1302849724
Bq         0.9554531679    -2.6851692466     0.3935791466
Bq         1.1149002230    -2.5787066422     0.0425202477
Bq         0.9155914041    -2.7117848977     0.4813438713
Bq         1.1547619868    -2.5520909911    -0.0452444770
Bq         0.8757296403    -2.7384005488     0.5691085960
Bq         1.1946237506    -2.5254753400    -0.1330092017
Bq         0.8358678765    -2.7650161999     0.6568733207
Bq         1.2344855144    -2.4988596889    -0.2207739264
Bq         1.0351766955    -2.6319379444     0.2180496971
Bq         0.9402825648    -2.1765886819     0.4269806741
Bq         1.0200060924    -2.1233573797     0.2514512247
Bq         0.9004208010    -2.2032043331     0.5147453988
Bq         1.0598678562    -2.0967417286     0.1636865000
Bq         0.8605590372    -2.2298199842     0.6025101236
Bq         1.0997296200    -2.0701260775     0.0759217753
Bq         0.8206972734    -2.2564356353     0.6902748483
Bq         1.1395913837    -2.0435104264    -0.0118429494
Bq         0.7808355097    -2.2830512864     0.7780395730
Bq         1.1794531475    -2.0168947753    -0.0996076741
Bq         0.9801443286    -2.1499730308     0.3392159494
Bq         0.8852501979    -1.6946237684     0.5481469264
Bq         0.9649737255    -1.6413924662     0.3726174770
Bq         0.8453884342    -1.7212394195     0.6359116511
Bq         1.0048354893    -1.6147768151     0.2848527523
Bq         0.8055266704    -1.7478550706     0.7236763758
Bq         1.0446972531    -1.5881611640     0.1970880276
Bq         0.7656649066    -1.7744707217     0.8114411006
Bq         1.0845590169    -1.5615455129     0.1093233029
Bq         0.7258031428    -1.8010863728     0.8992058253
Bq         1.1244207807    -1.5349298617     0.0215585781
Bq         0.9251119617    -1.6680081173     0.4603822017
Bq         0.8302178311    -1.2126588548     0.6693131787
Bq         0.9099413587    -1.1594275526     0.4937837293
Bq         0.7903560673    -1.2392745059     0.7570779034
Bq         0.9498031225    -1.1328119015     0.4060190046
Bq         0.7504943035    -1.2658901570     0.8448426281
Bq         0.9896648862    -1.1061962504     0.3182542799
Bq         0.7106325397    -1.2925058081     0.9326073528
Bq         1.0295266500    -1.0795805993     0.2304895551
Bq         0.6707707759    -1.3191214593     1.0203720776
Bq         1.0693884138    -1.0529649482     0.1427248304
Bq         0.8700795949    -1.1860432037     0.5815484540
Bq         0.7751854642    -0.7306939413     0.7904794310
Bq         0.8549089918    -0.6774626391     0.6149499816
Bq         0.7353237004    -0.7573095924     0.8782441557
Bq         0.8947707556    -0.6508469879     0.5271852569
Bq         0.6954619367    -0.7839252435     0.9660088804
Bq         0.9346325194    -0.6242313368     0.4394205321
Bq         0.6556001729    -0.8105408946     1.0537736051
Bq         0.9744942832    -0.5976156857     0.3516558074
Bq         0.6157384091    -0.8371565457     1.1415383299
Bq         1.0143560470    -0.5710000346     0.2638910827
Bq         0.8150472280    -0.7040782902     0.7027147063
Bq         0.7201530974    -0.2487290277     0.9116456833
Bq         0.7998766249    -0.1954977255     0.7361162339
Bq         0.6802913336    -0.2753446788     0.9994104080
Bq         0.8397383887    -0.1688820744     0.6483515092
Bq         0.6404295698    -0.3019603299     1.0871751327
Bq         0.8796001525    -0.1422664233     0.5605867844
Bq         0.6005678060    -0.3285759810     1.1749398574
Bq         0.9194619163    -0.1156507722     0.4728220597
Bq         0.5607060422    -0.3551916321     1.2627045821
Bq         0.9593236801    -0.0890351211     0.3850573350
Bq         0.7600148612    -0.2221133766     0.8238809586
Bq         1.7257211325    -5.0683781633    -0.0932499015
Bq         1.8054446601    -5.0151468611    -0.2687793509
Bq         1.6858593688    -5.0949938144    -0.0054851768
Bq         1.8453064239    -4.9885312100    -0.3565440756
Bq         1.6459976050    -5.1216094655     0.0822795480
Bq         1.8851681877    -4.9619155589    -0.4443088003
Bq         1.6061358412    -5.1482251166     0.1700442727
Bq         1.9250299515    -4.9352999078    -0.5320735250
Bq         1.5662740774    -5.1748407677     0.2578089974
Bq         1.9648917153    -4.9086842567    -0.6198382497
Bq         1.7655828963    -5.0417625122    -0.1810146262
Bq         1.6706887657    -4.5864132498     0.0279163508
Bq         1.7504122933    -4.5331819475    -0.1476130986
Bq         1.6308270019    -4.6130289009     0.1156810755
Bq         1.7902740570    -4.5065662964    -0.2353778233
Bq         1.5909652381    -4.6396445520     0.2034458002
Bq         1.8301358208    -4.4799506453    -0.3231425480
Bq         1.5511034743    -4.6662602031     0.2912105250
Bq         1.8699975846    -4.4533349942    -0.4109072727
Bq         1.5112417105    -4.6928758542     0.3789752497
Bq         1.9098593484    -4.4267193431    -0.4986719975
Bq         1.7105505295    -4.5597975986    -0.0598483739
Bq         1.6156563988    -4.1044483362     0.1490826031
Bq         1.6953799264    -4.0512170340    -0.0264468463
Bq         1.5757946350    -4.1310639873     0.2368473278
Bq         1.7352416902    -4.0246013829    -0.1142115710
Bq         1.5359328712    -4.1576796384     0.3246120525
Bq         1.7751034540    -3.9979857318    -0.2019762957
Bq         1.4960711075    -4.1842952895     0.4123767772
Bq         1.8149652178    -3.9713700807    -0.2897410205
Bq         1.4562093437    -4.2109109406     0.5001415020
Bq         1.8548269815    -3.9447544296    -0.3775057452
Bq         1.6555181626    -4.0778326851     0.0613178784
Bq         1.5606240320    -3.6224834226     0.2702488554
Bq         1.6403475595    -3.5692521204     0.0947194060
Bq         1.5207622682    -3.6490990737     0.3580135801
Bq         1.6802093233    -3.5426364693     0.0069546813
Bq         1.4809005044    -3.6757147248     0.4457783048
Bq         1.7200710871    -3.5160208182    -0.0808100434
Bq         1.4410387406    -3.7023303760     0.5335430295
Bq         1.7599328509    -3.4894051671    -0.1685747682
Bq         1.4011769768    -3.7289460271     0.6213077543
Bq         1.7997946147    -3.4627895160    -0.2563394929
Bq         1.6004857957    -3.5958677715     0.1824841307
Bq         1.5055916651    -3.1405185091     0.3914151077
Bq         1.5853151927    -3.0872872069     0.2158856583
Bq         1.4657299013    -3.1671341602     0.4791798324
Bq         1.6251769565    -3.0606715558     0.1281209336
Bq         1.4258681375    -3.1937498113     0.5669445571
Bq         1.6650387202    -3.0340559046     0.0403562088
Bq         1.3860063737    -3.2203654624     0.6547092818
Bq         1.7049004840    -3.0074402535    -0.0474085159
Bq         1.3461446099    -3.2469811135     0.7424740065
Bq         1.7447622478    -2.9808246024    -0.1351732406
Bq         1.5454534289    -3.1139028580     0.3036503830
Bq         1.4505592982    -2.6585535955     0.5125813600
Bq         1.5302828258    -2.6053222933     0.3370519106
Bq         1.4106975345    -2.6851692466     0.6003460847
Bq         1.5701445896    -2.5787066422     0.2492871858
Bq         1.3708357707    -2.7117848977     0.6881108094
Bq         1.6100063534    -2.5520909911     0.1615224611
Bq         1.3309740069    -2.7384005488     0.7758755341
Bq         1.6498681172    -2.5254753400     0.0737577364
Bq         1.2911122431    -2.7650161999     0.8636402588
Bq         1.6897298810    -2.4988596889    -0.0140069883
Bq         1.4904210620    -2.6319379444     0.4248166353
Bq         1.3955269314    -2.1765886819     0.6337476123
Bq         1.4752504590    -2.1233573797     0.4582181628
Bq         1.3556651676    -2.2032043331     0.7215123370
Bq         1.5151122227    -2.0967417286     0.3704534381
Bq         1.3158034038    -2.2298199842     0.8092770617
Bq         1.5549739865    -2.0701260775     0.2826887134
Bq         1.2759416400    -2.2564356353     0.8970417864

1
2
3
4
5
6
7
8
9
10
11
12
13
14
15
16
17
18
19
20
21
22
23
24
25
26
27
28
29
30
31
32
33
34
35
36
37
38
39
40
41
42
43
44
45
46
47
48
49
50
51
52
53
54
55
56
57
58
59
60
61
62
63
64
65
66
67
68
69
70
71
72
73
74
75
76
77
78
79
80
81
82
83
84
85
86
87
88
89
90
91
92
93
94
95
96
97
98
99
100
101
102
103
104
105
106
107
108
109
110
111
112
113
114
115
116
117
118
119
120
121
122
123
124
125
126
127
128
129
130
131
132
133
134
135
136
137
138
139
140
141
142
143
144
145
146
147
148
149
150
151
152
153
154
155
156
157
158
159
160
161
162
163
164
165
166
167
168
169
170
171
172
173
174
175
176
177
178
179
180
181
182
183
184
185
186
187
188
189
190
191
192
193
194
195
196
197
198
199
200
201
202
203
204
205
206
207
208
209
210
211
212
213
214
215
216
217
218
219
220
221
222
223
224
225
226
227
228
229
230
231
232
233
234
235
236

